
  EPA STORM WATER MANAGEMENT MODEL - VERSION 5.1 (Build 5.3.0.dev0)
  --------------------------------------------------------------

  WARNING 04: minimum elevation drop used for Conduit WS02004404WS02004405
  WARNING 03: negative offset ignored for Link YS02001904YS02001907
  
  *********************************************************
  NOTE: The summary statistics displayed in this report are
  based on results found at every computational time step,  
  not just on results from each reporting time step.
  *********************************************************
  
  ****************
  Analysis Options
  ****************
  Flow Units ............... LPS
  Process Models:
    Rainfall/Runoff ........ YES
    RDII ................... NO
    Snowmelt ............... NO
    Groundwater ............ NO
    Flow Routing ........... YES
    Ponding Allowed ........ NO
    Water Quality .......... NO
  Infiltration Method ...... HORTON
  Flow Routing Method ...... DYNWAVE
  Surcharge Method ......... EXTRAN
  Starting Date ............ 08/28/2015 08:00:00
  Ending Date .............. 08/28/2015 15:50:00
  Antecedent Dry Days ...... 8.0
  Report Time Step ......... 00:01:00
  Wet Time Step ............ 00:01:00
  Dry Time Step ............ 00:01:00
  Routing Time Step ........ 5.00 sec
  Variable Time Step ....... YES
  Maximum Trials ........... 8
  Number of Threads ........ 4
  Head Tolerance ........... 0.001500 m
  
  
  **************************        Volume         Depth
  Runoff Quantity Continuity     hectare-m            mm
  **************************     ---------       -------
  Total Precipitation ......         6.144        13.452
  Evaporation Loss .........         0.000         0.000
  Infiltration Loss ........         1.572         3.442
  Surface Runoff ...........         3.480         7.619
  Final Storage ............         1.093         2.393
  Continuity Error (%) .....        -0.016
  
  
  **************************        Volume        Volume
  Flow Routing Continuity        hectare-m      10^6 ltr
  **************************     ---------     ---------
  Dry Weather Inflow .......         0.616         6.165
  Wet Weather Inflow .......         3.479        34.788
  Groundwater Inflow .......         0.000         0.000
  RDII Inflow ..............         0.000         0.000
  External Inflow ..........         0.102         1.024
  External Outflow .........         1.980        19.797
  Flooding Loss ............         1.712        17.123
  Evaporation Loss .........         0.000         0.000
  Exfiltration Loss ........         0.000         0.000
  Initial Stored Volume ....         0.076         0.761
  Final Stored Volume ......         0.652         6.522
  Continuity Error (%) .....        -1.650
  
  
  *************************
  Highest Continuity Errors
  *************************
  Node HS02004842 (15.27%)
  Node YS02001884 (11.24%)
  Node JK-storage (-7.19%)
  Node YSB1171 (2.79%)
  Node HS02004817 (2.78%)
  
  
  ***************************
  Time-Step Critical Elements
  ***************************
  Link 3 (49.18%)
  Link WS02006252WS02006251 (39.14%)
  Link WS02006238WS02006235 (3.22%)
  Link WS02006280WS02006229 (2.34%)
  Link 2 (1.32%)
  
  
  ********************************
  Highest Flow Instability Indexes
  ********************************
  Link YS02163301YS02001633 (40)
  Link YS02163601YS02164001 (40)
  Link YS02001619YS02001622 (40)
  Link YS02001629YS02163301 (40)
  Link YS02164001YS02001641 (37)
  
  
  *************************
  Routing Time Step Summary
  *************************
  Minimum Time Step           :     0.17 sec
  Average Time Step           :     0.80 sec
  Maximum Time Step           :     5.00 sec
  Percent in Steady State     :    -0.00
  Average Iterations per Step :     4.65
  Percent Not Converging      :    21.42
  
  
  ***************************
  Subcatchment Runoff Summary
  ***************************
  
  ------------------------------------------------------------------------------------------------------------------------------
                            Total      Total      Total      Total     Imperv       Perv      Total       Total     Peak  Runoff
                           Precip      Runon       Evap      Infil     Runoff     Runoff     Runoff      Runoff   Runoff   Coeff
  Subcatchment                 mm         mm         mm         mm         mm         mm         mm    10^6 ltr      LPS
  ------------------------------------------------------------------------------------------------------------------------------
  sub0                      13.45       0.00       0.00       0.89      11.25       0.05      11.30        0.01     3.67   0.840
  sub1                      13.45       0.00       0.00       1.45      10.71       0.03      10.74        0.07    24.31   0.799
  sub2                      13.45       0.00       0.00       4.95       7.56       0.02       7.58        0.07    22.93   0.564
  sub3                      13.45       0.00       0.00       4.96       7.52       0.02       7.54        0.17    51.30   0.560
  sub4                      13.45       0.00       0.00       1.46      10.54       0.02      10.56        0.22    61.94   0.785
  sub5                      13.45       0.00       0.00       0.91      11.19       0.03      11.22        0.13    43.21   0.834
  sub7                      13.45       0.00       0.00       1.17      10.98       0.04      11.03        0.04    13.69   0.820
  sub8                      13.45       0.00       0.00       1.17      10.97       0.04      11.01        0.07    25.15   0.819
  sub9                      13.45       0.00       0.00       1.17      10.97       0.04      11.01        0.05    18.81   0.818
  sub10                     13.45       0.00       0.00       1.04      11.08       0.03      11.11        0.12    42.29   0.826
  sub11                     13.45       0.00       0.00       1.04      11.10       0.04      11.14        0.13    46.68   0.828
  sub12                     13.45       0.00       0.00       1.69      10.51       0.06      10.58        0.09    35.94   0.786
  sub14                     13.45       0.00       0.00       1.17      10.97       0.04      11.01        0.10    37.02   0.818
  sub15                     13.45       0.00       0.00       4.00       8.43       0.04       8.47        0.15    51.03   0.630
  sub16                     13.45       0.00       0.00       4.38       8.09       0.06       8.15        0.09    32.58   0.606
  sub17                     13.45       0.00       0.00       4.25       8.21       0.06       8.27        0.07    26.73   0.615
  sub22                     13.45       0.00       0.00       5.74       6.88       0.04       6.92        0.44   159.06   0.514
  sub23                     13.45       0.00       0.00       4.93       7.60       0.05       7.65        0.36   133.95   0.569
  sub60                     13.45       0.00       0.00       1.61       8.73       0.00       8.74        2.65   387.96   0.649
  sub61                     13.45       0.00       0.00       2.28       8.88       0.00       8.88        2.74   483.52   0.660
  sub62                     13.45       0.00       0.00       1.07       9.65       0.00       9.66        2.97   496.42   0.718
  sub63                     13.45       0.00       0.00       3.90       7.77       0.00       7.77        2.35   446.68   0.578
  sub64                     13.45       0.00       0.00       2.01       8.38       0.00       8.38        2.55   368.35   0.623
  sub65                     13.45       0.00       0.00       1.75       8.52       0.00       8.52        2.62   373.60   0.634
  sub66                     13.45       0.00       0.00       3.90       7.19       0.00       7.19        2.21   337.96   0.535
  sub67                     13.45       0.00       0.00       1.07      10.19       0.01      10.19        3.15   622.58   0.758
  sub68                     13.45       0.00       0.00       1.88       9.34       0.01       9.34        2.87   531.38   0.694
  sub69                     13.45       0.00       0.00       2.01       9.68       0.01       9.69        2.26   503.32   0.720
  sub70                     13.45       9.89       0.00       7.67      12.93       0.26      13.20        3.02   423.72   0.565
  sub71                     13.45       0.00       0.00       1.07       9.40       0.00       9.40        2.22   347.35   0.699
  sub72                     13.45       0.00       0.00       0.94       7.49       0.00       7.50        1.53   163.23   0.557
  sub73                     13.45      12.84       0.00       8.67      14.26       0.27      14.53        3.41   375.92   0.552
  sub74                     13.45       0.00       0.00      10.09       2.88       0.00       2.89        1.15   273.25   0.215
  
  
  ******************
  Node Depth Summary
  ******************
  
  ---------------------------------------------------------------------------------
                                 Average  Maximum  Maximum  Time of Max    Reported
                                   Depth    Depth      HGL   Occurrence   Max Depth
  Node                 Type       Meters   Meters   Meters  days hr:min      Meters
  ---------------------------------------------------------------------------------
  WS02001211           JUNCTION     0.65     0.76     5.60     0  04:32        0.76
  WS02001212           JUNCTION     0.38     0.47     5.53     0  03:01        0.47
  WS02001213           JUNCTION     0.62     0.75     5.51     0  03:02        0.75
  WS02003069           JUNCTION     0.45     0.62     5.21     0  03:04        0.62
  WS02003072           JUNCTION     0.51     0.68     5.05     0  03:05        0.68
  WS02003073           JUNCTION     0.31     0.42     4.48     0  03:05        0.42
  WS02003060           JUNCTION     0.40     0.55     5.48     0  03:03        0.55
  WS02003066           JUNCTION     0.24     0.36     5.91     0  03:05        0.36
  WS02003059           JUNCTION     0.68     0.81     5.50     0  03:02        0.81
  WS02003067           JUNCTION     0.59     0.78     6.10     0  03:04        0.78
  WS02004401           JUNCTION     0.71     1.10     7.10     0  03:03        1.10
  WS02004402           JUNCTION     0.74     1.11     7.07     0  03:03        1.11
  WS02004403           JUNCTION     0.76     1.10     7.03     0  03:03        1.10
  WS02004404           JUNCTION     0.83     1.15     7.00     0  03:03        1.15
  WS02004406           JUNCTION     0.83     1.10     6.93     0  03:03        1.10
  WS02004409           JUNCTION     0.52     0.85     6.62     0  03:04        0.85
  WS02004410           JUNCTION     0.54     0.85     6.57     0  03:04        0.84
  WS02004411           JUNCTION     0.55     0.84     6.52     0  03:04        0.84
  WS02004412           JUNCTION     0.57     0.83     6.47     0  03:04        0.83
  WS02004413           JUNCTION     0.72     0.97     6.44     0  03:04        0.97
  WS02004405           JUNCTION     0.82     1.13     6.98     0  03:03        1.13
  WS02006109           JUNCTION     0.79     1.25     7.87     0  03:02        1.24
  WS02006110           JUNCTION     0.77     1.10     7.69     0  03:02        1.10
  WS02006111           JUNCTION     0.24     0.59     7.30     0  03:03        0.59
  WS02006112           JUNCTION     0.88     1.38     7.26     0  03:02        1.37
  WS02006113           JUNCTION     0.36     0.60     7.50     0  03:02        0.60
  WS02006115           JUNCTION     0.60     1.05     7.19     0  03:02        1.05
  WS02006116           JUNCTION     0.68     1.11     7.15     0  03:02        1.11
  WS02006230           JUNCTION     0.77     1.37     8.12     0  03:02        1.37
  WS02006231           JUNCTION     0.52     1.01     8.13     0  03:02        1.00
  WS02006232           JUNCTION     0.65     1.10     8.14     0  03:01        1.08
  WS02006234           JUNCTION     0.57     0.99     8.15     0  03:02        0.98
  WS02006235           JUNCTION     0.60     0.99     8.16     0  03:01        0.98
  WS02006238           JUNCTION     0.62     1.02     8.16     0  03:01        1.00
  WS02006240           JUNCTION     0.52     0.88     8.17     0  03:01        0.88
  WS02006242           JUNCTION     0.57     0.92     8.19     0  03:02        0.91
  WS02006243           JUNCTION     0.45     0.78     8.20     0  03:01        0.78
  WS02006245           JUNCTION     0.43     0.73     8.21     0  03:01        0.73
  WS02006247           JUNCTION     0.44     0.72     8.22     0  03:01        0.72
  WS02006248           JUNCTION     0.39     0.65     8.23     0  02:40        0.65
  WS02006249           JUNCTION     0.42     0.65     8.25     0  02:40        0.65
  WS02006239           JUNCTION     0.58     0.96     8.17     0  03:01        0.95
  WS02006251           JUNCTION     0.41     0.70     8.37     0  02:40        0.70
  WS02006252           JUNCTION     0.35     0.59     8.83     0  06:50        0.59
  WS02006253           JUNCTION     0.43     0.73     8.37     0  02:40        0.73
  WS02006256           JUNCTION     1.05     1.23     8.16     0  03:00        1.23
  WS02004138           JUNCTION     0.15     0.19     7.44     0  01:30        0.19
  WS02004407           JUNCTION     0.24     0.36     6.68     0  03:03        0.36
  WS02006228           JUNCTION     0.80     1.37     8.02     0  03:02        1.36
  WS02006229           JUNCTION     0.78     1.41     8.10     0  03:02        1.40
  WS02006280           JUNCTION     0.07     0.24     8.52     0  03:02        0.24
  WS02006284           JUNCTION     0.38     0.63     9.02     0  03:02        0.62
  WS02006287           JUNCTION     0.11     0.37     9.32     0  03:02        0.37
  WSF200               JUNCTION     0.24     0.39     5.62     0  03:04        0.39
  HS02004901           JUNCTION     0.13     0.35    10.17     0  03:01        0.35
  HS02004881           JUNCTION     0.01     0.05     9.08     0  03:01        0.05
  HS02004876           JUNCTION     0.05     0.15     9.18     0  03:01        0.15
  HS02004870           JUNCTION     0.02     0.09     9.37     0  03:01        0.09
  HS02004862           JUNCTION     0.02     0.10     9.49     0  03:01        0.10
  HS02004856           JUNCTION     0.08     0.15     9.57     0  03:01        0.15
  HS02004852           JUNCTION     0.01     0.07     9.58     0  03:02        0.07
  HS02004848           JUNCTION     0.01     0.06     9.67     0  03:01        0.06
  HS02004842           JUNCTION     0.33     0.40     9.67     0  03:01        0.40
  HS02004837           JUNCTION     0.03     0.09     9.67     0  03:01        0.09
  HS02004830           JUNCTION     0.04     0.10     9.57     0  03:01        0.10
  HS02004824           JUNCTION     0.03     0.11     9.51     0  03:02        0.11
  HS02004817           JUNCTION     0.45     0.67     9.52     0  03:02        0.67
  HS02004807           JUNCTION     0.13     0.34     9.51     0  03:02        0.34
  HS02004802           JUNCTION     0.17     0.38     9.50     0  03:02        0.38
  HS02004799           JUNCTION     0.13     0.43     9.65     0  03:01        0.43
  HS02004792           JUNCTION     0.04     0.20     9.72     0  03:01        0.19
  HS02004788           JUNCTION     0.03     0.14    10.04     0  03:02        0.14
  HS02004785           JUNCTION     0.05     0.23    10.13     0  03:02        0.23
  HS02004777           JUNCTION     0.16     0.37    10.17     0  03:01        0.37
  HS02004770           JUNCTION     0.13     0.34    10.17     0  03:01        0.34
  HS02004480           JUNCTION     0.09     0.35     9.59     0  03:01        0.35
  HS02004479           JUNCTION     0.13     0.39     9.60     0  03:01        0.39
  HS02004478           JUNCTION     0.07     0.26     9.48     0  03:01        0.26
  YS02001745           JUNCTION     0.71     0.89     8.40     0  03:29        0.89
  YS02001748           JUNCTION     1.11     2.27     9.35     0  02:44        1.33
  YS02001751           JUNCTION     1.29     2.20     9.08     0  02:40        1.53
  YS02001754           JUNCTION     1.54     2.20     8.81     0  02:44        1.81
  YS02001762           JUNCTION     1.74     2.10     8.50     0  02:46        2.03
  YS02001765           JUNCTION     1.69     2.04     8.49     0  02:46        1.97
  YS02001767           JUNCTION     1.66     2.00     8.49     0  02:46        1.93
  YS02001770           JUNCTION     1.65     1.95     8.44     0  02:44        1.91
  YS02001774           JUNCTION     1.72     2.02     8.44     0  02:44        1.97
  YS02001779           JUNCTION     1.47     1.68     8.37     0  02:42        1.68
  YS02001882           JUNCTION     0.59     1.64     8.35     0  02:51        1.62
  YS02001884           JUNCTION     0.68     1.73     8.35     0  03:00        1.72
  YS02001759           JUNCTION     1.77     2.13     8.49     0  02:46        2.06
  YS02001887           JUNCTION     0.76     1.81     8.35     0  03:00        1.80
  YS02001890           JUNCTION     0.79     1.81     8.32     0  02:50        1.81
  YS02001898           JUNCTION     0.56     1.57     8.30     0  02:51        1.56
  YS02001901           JUNCTION     0.68     1.68     8.29     0  02:51        1.67
  YS02001904           JUNCTION     0.65     1.64     8.27     0  02:51        1.63
  YS02001907           JUNCTION     0.98     1.96     8.25     0  02:51        1.96
  YS02001910           JUNCTION     0.77     1.79     8.29     0  02:52        1.78
  YS02001915           JUNCTION     0.57     1.61     8.33     0  02:52        1.59
  YS02001918           JUNCTION     0.32     1.30     8.37     0  02:52        1.28
  YS02001619           JUNCTION     1.25     1.61     8.54     0  02:42        1.48
  YS02001629           JUNCTION     1.61     1.85     8.40     0  02:42        1.85
  YS02001641           JUNCTION     1.70     1.98     8.42     0  02:44        1.93
  YS02001644           JUNCTION     1.71     1.92     8.35     0  02:44        1.92
  YS02001652           JUNCTION     1.55     2.16     8.76     0  02:55        2.13
  YS02001655           JUNCTION     1.32     2.20     9.05     0  02:38        2.02
  YS02001920           JUNCTION     0.41     1.39     8.39     0  02:52        1.35
  YS02001923           JUNCTION     0.25     1.16     8.42     0  02:52        1.12
  YS02001926           JUNCTION     0.30     1.00     8.45     0  02:52        0.94
  YS02001929           JUNCTION     0.17     0.76     8.45     0  02:52        0.69
  YS02001658           JUNCTION     1.05     2.30     9.44     0  02:43        1.75
  YS02001661           JUNCTION     0.82     2.46     9.86     0  02:57        1.40
  YS02001664           JUNCTION     0.36     0.57     8.49     0  02:53        0.56
  YS02001622           JUNCTION     1.28     1.62     8.52     0  02:42        1.49
  YS02001633           JUNCTION     1.70     2.03     8.48     0  02:44        1.94
  YS02001649           JUNCTION     1.75     2.05     8.44     0  02:43        2.05
  YS02001757           JUNCTION     1.87     2.21     8.47     0  02:44        2.17
  YS02001895           JUNCTION     0.55     1.57     8.31     0  02:51        1.56
  YS02001625           JUNCTION     1.56     1.78     8.38     0  02:42        1.78
  YS02163301           JUNCTION     1.64     1.93     8.45     0  02:44        1.88
  YS02163601           JUNCTION     1.75     2.08     8.48     0  02:44        1.98
  YS02164001           JUNCTION     1.69     2.00     8.46     0  02:44        1.91
  YS02001647           JUNCTION     1.54     1.81     8.42     0  02:46        1.79
  YSB1154              JUNCTION     0.27     0.54     9.60     0  03:01        0.54
  YSB6556              JUNCTION     0.16     0.43     9.60     0  03:02        0.43
  YSB1174              JUNCTION     0.22     0.49     9.60     0  03:01        0.49
  YSB1171              JUNCTION     0.42     0.69     9.60     0  03:01        0.69
  YS02006553           JUNCTION     0.98     1.97     8.25     0  02:58        1.96
  YS02006561           JUNCTION     0.35     1.10     7.76     0  02:51        1.08
  YS02006556           JUNCTION     0.95     1.93     8.24     0  03:01        1.92
  YS02006558           JUNCTION     0.99     1.98     8.24     0  03:00        1.97
  YS02001783           JUNCTION     0.58     1.49     7.63     0  02:51        1.47
  YS02001784           JUNCTION     0.59     1.77     7.84     0  02:42        1.41
  YS02001786           JUNCTION     0.53     2.12     8.15     0  02:42        1.26
  YS02001788           JUNCTION     0.46     1.79     7.77     0  02:42        1.13
  YS02001790           JUNCTION     0.58     1.96     7.60     0  02:41        1.29
  YS02001791           JUNCTION     0.55     1.82     7.29     0  02:41        1.27
  YS02001793           JUNCTION     0.76     2.01     6.84     0  02:39        1.80
  WS02004139           JUNCTION     0.59     0.70     5.61     0  04:32        0.70
  WSC                  OUTFALL      0.31     0.42     1.09     0  03:06        0.42
  3                    OUTFALL      0.11     0.22     6.22     0  03:00        0.22
  4                    OUTFALL      0.02     0.15     7.15     0  02:40        0.15
  5                    OUTFALL      0.00     0.00     5.00     0  00:00        0.00
  JK-storage           STORAGE      2.96     5.80     6.60     0  02:41        5.80
  CC-storage           STORAGE      1.10     1.39     8.39     0  03:41        1.39
  XR-storage           STORAGE      7.20     7.72     5.72     0  02:47        7.72
  
  
  *******************
  Node Inflow Summary
  *******************
  
  -------------------------------------------------------------------------------------------------
                                  Maximum  Maximum                  Lateral       Total        Flow
                                  Lateral    Total  Time of Max      Inflow      Inflow     Balance
                                   Inflow   Inflow   Occurrence      Volume      Volume       Error
  Node                 Type           LPS      LPS  days hr:min    10^6 ltr    10^6 ltr     Percent
  -------------------------------------------------------------------------------------------------
  WS02001211           JUNCTION      7.35   381.15     0  01:30       0.207         6.4       0.338
  WS02001212           JUNCTION      0.00   376.87     0  01:31           0        6.38       0.211
  WS02001213           JUNCTION      0.00   375.77     0  01:31           0        6.37       0.233
  WS02003069           JUNCTION      0.32  1054.38     0  03:04     0.00902        14.9       0.124
  WS02003072           JUNCTION      0.00  1054.37     0  03:04           0        14.9       0.168
  WS02003073           JUNCTION      1.82  1056.56     0  03:05      0.0514        14.9       0.179
  WS02003060           JUNCTION     16.53  1053.77     0  03:04       0.466        14.9       0.124
  WS02003066           JUNCTION      0.00   795.81     0  03:05           0        8.13       0.046
  WS02003059           JUNCTION      0.00   374.16     0  01:31           0        6.35       0.425
  WS02003067           JUNCTION      0.00   795.27     0  03:04           0        8.14       0.101
  WS02004401           JUNCTION      0.00   799.03     0  03:03           0        8.36       0.258
  WS02004402           JUNCTION      0.00   799.08     0  03:03           0        8.34       0.243
  WS02004403           JUNCTION      0.00   799.12     0  03:03           0        8.32       0.221
  WS02004404           JUNCTION      0.16   799.30     0  03:03     0.00457         8.3       0.167
  WS02004406           JUNCTION      0.00   799.35     0  03:03           0        8.27       0.403
  WS02004409           JUNCTION      0.00   799.13     0  03:03           0        8.23       0.178
  WS02004410           JUNCTION      0.00   797.41     0  03:03           0        8.22       0.198
  WS02004411           JUNCTION      0.00   796.27     0  03:04           0         8.2       0.202
  WS02004412           JUNCTION      0.00   795.47     0  03:04           0        8.18       0.219
  WS02004413           JUNCTION      0.00   795.21     0  03:04           0        8.16       0.329
  WS02004405           JUNCTION      0.04   799.34     0  03:03     0.00107        8.29       0.248
  WS02006109           JUNCTION      1.23   782.57     0  03:02      0.0347        8.42       0.255
  WS02006110           JUNCTION      0.00   782.56     0  03:02           0        8.39       0.249
  WS02006111           JUNCTION      0.00   780.17     0  03:02           0        8.36       0.060
  WS02006112           JUNCTION     26.73   798.63     0  03:03      0.0709        8.43       0.354
  WS02006113           JUNCTION      0.00   782.54     0  03:02           0        8.37       0.127
  WS02006115           JUNCTION      0.00   798.57     0  03:03           0         8.4       0.243
  WS02006116           JUNCTION      0.00   798.86     0  03:03           0        8.38       0.230
  WS02006230           JUNCTION     10.28   400.87     0  05:12        0.29        6.33       0.213
  WS02006231           JUNCTION      0.00   392.59     0  05:11           0        6.05       0.236
  WS02006232           JUNCTION      0.00   392.63     0  05:11           0        6.07       0.281
  WS02006234           JUNCTION      0.00   394.34     0  05:11           0        6.08       0.159
  WS02006235           JUNCTION      0.00   394.20     0  05:11           0        6.12       0.182
  WS02006238           JUNCTION      0.00   337.61     0  07:21           0         4.3       0.134
  WS02006240           JUNCTION      0.00   337.14     0  07:48           0         4.3       0.342
  WS02006242           JUNCTION      0.00   339.56     0  07:42           0        4.31       0.418
  WS02006243           JUNCTION      0.00   346.63     0  07:41           0         4.3       0.041
  WS02006245           JUNCTION      0.00   350.66     0  07:41           0        4.31       0.350
  WS02006247           JUNCTION      0.00   354.50     0  07:41           0        4.32       0.238
  WS02006248           JUNCTION      0.00   358.21     0  07:41           0        4.33       0.143
  WS02006249           JUNCTION      0.00   466.22     0  02:40           0        4.78       0.335
  WS02006239           JUNCTION      0.00   337.93     0  07:21           0        4.29       0.220
  WS02006251           JUNCTION      0.08   467.16     0  02:40     0.00217        4.83       0.289
  WS02006252           JUNCTION      0.00   400.00     0  07:40           0        4.39       0.012
  WS02006253           JUNCTION      3.67   134.78     0  03:01     0.00915       0.445       1.836
  WS02006256           JUNCTION      0.00   600.00     0  05:10           0        6.33       0.042
  WS02004138           JUNCTION      0.00   379.99     0  04:30           0        6.21       0.058
  WS02004407           JUNCTION      0.00   799.38     0  03:03           0        8.24       0.088
  WS02006228           JUNCTION      0.00   781.32     0  03:02           0         8.4       0.183
  WS02006229           JUNCTION      0.00   781.32     0  03:02           0        8.41       0.149
  WS02006280           JUNCTION      0.00   611.95     0  03:02           0         2.1       0.003
  WS02006284           JUNCTION      0.10   611.06     0  03:02      0.0027         2.1       0.059
  WS02006287           JUNCTION      0.00   609.83     0  03:02           0         2.1       0.034
  WSF200               JUNCTION      0.00   796.05     0  03:05           0        8.13       0.042
  HS02004901           JUNCTION     32.58    32.58     0  03:01      0.0853      0.0856       2.107
  HS02004881           JUNCTION     13.69   131.68     0  03:01      0.0372       0.403       0.079
  HS02004876           JUNCTION     24.31   119.36     0  03:01      0.0714       0.367       0.153
  HS02004870           JUNCTION     25.15    96.63     0  03:01      0.0703       0.295       0.038
  HS02004862           JUNCTION     23.13    73.48     0  03:01      0.0763       0.225       0.079
  HS02004856           JUNCTION     18.81    51.88     0  03:01      0.0529        0.15       0.973
  HS02004852           JUNCTION      0.00    35.11     0  03:01           0      0.0975       0.061
  HS02004848           JUNCTION     51.30    51.30     0  03:01        0.17        0.17       0.030
  HS02004842           JUNCTION      0.00    15.11     0  03:01           0      0.0851      18.025
  HS02004837           JUNCTION     48.64    62.30     0  03:01       0.302       0.374       0.219
  HS02004830           JUNCTION      0.15    61.39     0  03:01     0.00423       0.364       0.341
  HS02004824           JUNCTION     61.99   121.76     0  03:01       0.222       0.584       0.093
  HS02004817           JUNCTION      0.60   117.99     0  03:02      0.0169       0.601       2.855
  HS02004807           JUNCTION     46.68   158.05     0  03:01       0.129       0.713       0.602
  HS02004802           JUNCTION      0.00   156.92     0  03:03           0       0.709       0.571
  HS02004799           JUNCTION     37.02   389.10     0  03:01       0.105        1.19       0.208
  HS02004792           JUNCTION    159.34   356.45     0  03:01       0.445        1.08       0.038
  HS02004788           JUNCTION     52.70   202.58     0  03:02       0.193       0.638       0.062
  HS02004785           JUNCTION      0.15   157.28     0  03:01     0.00423       0.447       0.112
  HS02004777           JUNCTION      0.03   160.01     0  03:01    0.000846       0.447       1.175
  HS02004770           JUNCTION    133.95   163.77     0  03:01       0.365       0.449       0.699
  HS02004480           JUNCTION      0.00   456.69     0  03:01           0         1.4       0.084
  HS02004479           JUNCTION      0.00    72.19     0  03:02           0       0.228       0.322
  HS02004478           JUNCTION      0.00   609.30     0  03:02           0         2.1       0.018
  YS02001745           JUNCTION    387.96   444.03     0  02:44        2.65        2.66       0.397
  YS02001748           JUNCTION      0.04   638.57     0  02:44     0.00127        2.65       0.865
  YS02001751           JUNCTION      0.01   399.70     0  03:01     0.00031        2.62       0.888
  YS02001754           JUNCTION      0.26   399.73     0  03:01     0.00733         2.6       0.957
  YS02001762           JUNCTION      0.00   378.95     0  02:54           0        1.75       1.222
  YS02001765           JUNCTION      0.00   379.07     0  02:54           0        1.75       1.414
  YS02001767           JUNCTION      0.54   379.06     0  02:54      0.0151        1.77       2.064
  YS02001770           JUNCTION    496.57   496.57     0  03:01        2.97        3.15       1.018
  YS02001774           JUNCTION      0.00   396.76     0  03:30           0        1.54       1.655
  YS02001779           JUNCTION      0.01   396.92     0  03:30    0.000141        1.52       1.033
  YS02001882           JUNCTION      0.00    26.31     0  02:44           0       0.021      12.376
  YS02001884           JUNCTION      0.00    62.13     0  02:45           0      0.0571      12.662
  YS02001759           JUNCTION    483.56   757.50     0  02:55        2.74        4.28       0.542
  YS02001887           JUNCTION    623.03   623.03     0  03:01        3.16        3.19       0.276
  YS02001890           JUNCTION      0.00   623.26     0  03:01           0        3.14       0.300
  YS02001898           JUNCTION      0.00   517.18     0  03:02           0        3.09       0.118
  YS02001901           JUNCTION      0.00   517.23     0  03:02           0        3.08       0.227
  YS02001904           JUNCTION      0.00   517.10     0  03:02           0        3.08       0.209
  YS02001907           JUNCTION      0.00  1063.33     0  03:01           0        6.88       0.356
  YS02001910           JUNCTION      0.00   546.81     0  03:01           0        3.81       0.321
  YS02001915           JUNCTION    347.37   546.70     0  03:01        2.22        3.86       0.163
  YS02001918           JUNCTION      0.00   284.28     0  02:53           0        1.66       0.119
  YS02001619           JUNCTION    337.96   337.96     0  03:01        2.21        2.21       0.550
  YS02001629           JUNCTION      0.00   219.03     0  02:49           0        1.56       1.867
  YS02001641           JUNCTION      0.00   461.74     0  02:49           0        4.08       0.519
  YS02001644           JUNCTION    368.39  1133.66     0  03:26        2.55        9.24       0.284
  YS02001652           JUNCTION      0.00   485.69     0  03:01           0         2.3       1.019
  YS02001655           JUNCTION      0.15   485.80     0  03:01     0.00434        2.33       1.080
  YS02001920           JUNCTION      2.87   284.38     0  02:53      0.0809        1.64       0.191
  YS02001923           JUNCTION      0.04   273.17     0  02:53     0.00106        1.55       0.049
  YS02001926           JUNCTION      0.05   208.20     0  02:53     0.00147        1.53       0.222
  YS02001929           JUNCTION    163.23   163.23     0  03:01        1.53        1.53       0.039
  YS02001658           JUNCTION      0.00   629.56     0  02:42           0        2.36       0.966
  YS02001661           JUNCTION      0.00   735.27     0  03:03           0        3.01      -0.052
  YS02001664           JUNCTION    446.68   446.68     0  03:01        2.35           3       0.197
  YS02001622           JUNCTION      0.00   338.11     0  03:01           0        2.19       1.461
  YS02001633           JUNCTION    373.80   461.59     0  02:49        2.63        4.14       0.784
  YS02001649           JUNCTION      0.00   985.19     0  02:50           0        5.57       0.673
  YS02001757           JUNCTION      0.00  1913.49     0  02:51           0        9.52       0.980
  YS02001895           JUNCTION      0.00   517.12     0  03:02           0        3.09       0.162
  YS02001625           JUNCTION      0.00   338.00     0  03:01           0        2.16       1.831
  YS02163301           JUNCTION      0.00   219.05     0  02:49           0        1.54       1.586
  YS02163601           JUNCTION      0.11   461.76     0  02:49      0.0031        4.11       0.739
  YS02164001           JUNCTION      0.00   461.72     0  02:49           0        4.09       0.495
  YS02001647           JUNCTION      0.00   703.31     0  02:49           0        4.52       0.640
  YSB1154              JUNCTION     43.21    43.21     0  03:01       0.127       0.128       1.144
  YSB6556              JUNCTION      0.00    41.77     0  03:01           0       0.129       0.980
  YSB1174              JUNCTION     35.94    35.94     0  03:01      0.0924      0.0931       1.403
  YSB1171              JUNCTION      0.00    73.32     0  03:01           0       0.227       2.865
  YS02006553           JUNCTION      0.00   672.23     0  03:32           0        6.13       0.258
  YS02006561           JUNCTION      0.00   968.98     0  03:01           0        8.97       0.008
  YS02006556           JUNCTION      0.00   672.20     0  03:31           0        6.13       0.184
  YS02006558           JUNCTION    532.26   969.30     0  03:00         2.9           9       0.061
  YS02001783           JUNCTION      0.00   969.07     0  03:00           0        8.97       0.029
  YS02001784           JUNCTION      1.06   970.04     0  03:00      0.0299           9       0.045
  YS02001786           JUNCTION      0.06   970.20     0  03:00     0.00159           9       0.041
  YS02001788           JUNCTION      0.07   970.18     0  03:00       0.002           9       0.024
  YS02001790           JUNCTION      0.15   970.42     0  03:01     0.00437           9       0.028
  YS02001791           JUNCTION      0.00   970.39     0  03:01           0        8.99       0.015
  YS02001793           JUNCTION      0.00   970.47     0  03:01           0        8.99       0.005
  WS02004139           JUNCTION      0.32   379.49     0  01:30     0.00905        6.22       0.415
  WSC                  OUTFALL       0.00  1057.13     0  03:06           0        14.9       0.000
  3                    OUTFALL       0.00   568.97     0  03:00           0        4.48       0.000
  4                    OUTFALL       0.00   214.28     0  02:40           0       0.436       0.000
  5                    OUTFALL       0.00     0.00     0  00:00           0           0       0.000 ltr
  JK-storage           STORAGE       0.00   970.60     0  03:01           0        9.14      -6.711
  CC-storage           STORAGE       0.00  1913.81     0  02:51           0           8       0.575
  XR-storage           STORAGE     849.17   849.17     0  03:01        10.2        10.8      -0.000
  
  
  **********************
  Node Surcharge Summary
  **********************
  
  Surcharging occurs when water rises above the top of the highest conduit.
  ---------------------------------------------------------------------
                                               Max. Height   Min. Depth
                                   Hours       Above Crown    Below Rim
  Node                 Type      Surcharged         Meters       Meters
  ---------------------------------------------------------------------
  WS02004401           JUNCTION        0.26          0.103        1.557
  WS02004402           JUNCTION        0.29          0.106        1.634
  WS02004403           JUNCTION        0.31          0.096        1.934
  WS02004404           JUNCTION        0.65          0.149        2.631
  WS02004406           JUNCTION        0.58          0.100        2.350
  WS02004405           JUNCTION        0.61          0.130        2.670
  WS02006109           JUNCTION        2.05          0.433        1.387
  WS02006110           JUNCTION        0.81          0.194        1.656
  WS02006112           JUNCTION        0.94          0.379        1.301
  WS02006115           JUNCTION        0.10          0.044        2.206
  WS02006116           JUNCTION        0.13          0.052        2.238
  WS02006230           JUNCTION        0.63          0.292        1.278
  WS02006231           JUNCTION        0.68          0.298        1.232
  WS02006232           JUNCTION        2.03          0.399        1.081
  WS02006234           JUNCTION        0.77          0.270        0.970
  WS02006235           JUNCTION        1.23          0.283        1.007
  WS02006238           JUNCTION        1.60          0.296        1.134
  WS02006240           JUNCTION        0.67          0.169        1.221
  WS02006242           JUNCTION        1.08          0.193        0.627
  WS02006243           JUNCTION        0.43          0.069        0.701
  WS02006245           JUNCTION        0.09          0.016        0.834
  WS02006247           JUNCTION        0.09          0.009        0.751
  WS02006239           JUNCTION        0.78          0.219        1.071
  WS02006252           JUNCTION        1.89          0.190        0.910
  WS02006228           JUNCTION        1.91          0.539        1.661
  YS02001748           JUNCTION        5.04          1.190        0.000
  YS02001751           JUNCTION        5.14          1.200        0.000
  YS02001754           JUNCTION        5.34          1.150        0.000
  YS02001762           JUNCTION        5.52          1.096        0.054
  YS02001765           JUNCTION        5.49          1.042        0.058
  YS02001767           JUNCTION        5.47          1.000        0.030
  YS02001770           JUNCTION        5.46          0.920        0.000
  YS02001774           JUNCTION        5.51          1.021        0.029
  YS02001779           JUNCTION        5.32          0.680        0.000
  YS02001882           JUNCTION        1.03          0.635        0.195
  YS02001884           JUNCTION        1.06          0.673        0.197
  YS02001759           JUNCTION        5.54          1.130        0.080
  YS02001887           JUNCTION        1.14          0.762        0.188
  YS02001890           JUNCTION        1.17          0.760        0.000
  YS02001898           JUNCTION        0.99          0.540        0.200
  YS02001901           JUNCTION        1.11          0.679        0.191
  YS02001904           JUNCTION        1.09          0.639        0.211
  YS02001907           JUNCTION        1.67          0.950        0.000
  YS02001910           JUNCTION        1.22          0.787        0.313
  YS02001915           JUNCTION        1.02          0.607        0.393
  YS02001918           JUNCTION        0.79          0.304        0.506
  YS02001619           JUNCTION        5.16          0.610        0.000
  YS02001629           JUNCTION        5.17          0.470        0.000
  YS02001641           JUNCTION        5.50          0.980        0.120
  YS02001644           JUNCTION        5.50          0.920        0.000
  YS02001652           JUNCTION        5.40          1.130        0.000
  YS02001655           JUNCTION        5.18          1.200        0.000
  YS02001920           JUNCTION        0.83          0.387        0.753
  YS02001926           JUNCTION        0.01          0.002        0.898
  YS02001658           JUNCTION        5.06          1.300        0.000
  YS02001661           JUNCTION        0.26          1.390        0.000
  YS02001622           JUNCTION        5.20          0.620        0.000
  YS02001633           JUNCTION        5.48          1.011        0.049
  YS02001649           JUNCTION        5.52          1.050        0.000
  YS02001757           JUNCTION        5.62          1.210        0.000
  YS02001895           JUNCTION        1.01          0.567        0.183
  YS02001625           JUNCTION        5.43          0.780        0.000
  YS02163301           JUNCTION        5.46          0.929        0.101
  YS02163601           JUNCTION        5.52          1.080        0.000
  YS02164001           JUNCTION        5.49          1.001        0.099
  YS02001647           JUNCTION        5.41          0.810        0.090
  YS02006553           JUNCTION        1.72          0.969        0.221
  YS02006561           JUNCTION        0.91          0.302        0.848
  YS02006556           JUNCTION        1.42          0.891        0.459
  YS02006558           JUNCTION        1.38          0.876        0.524
  YS02001783           JUNCTION        1.45          0.693        0.907
  YS02001784           JUNCTION        1.51          0.967        0.523
  YS02001786           JUNCTION        1.45          1.319        0.111
  YS02001788           JUNCTION        1.44          0.988        0.492
  YS02001790           JUNCTION        2.00          1.157        0.000
  YS02001791           JUNCTION        2.21          1.023        0.897
  YS02001793           JUNCTION        2.49          1.008        1.592
  
  
  *********************
  Node Flooding Summary
  *********************
  
  Flooding refers to all water that overflows a node, whether it ponds or not.
  --------------------------------------------------------------------------
                                                             Total   Maximum
                                 Maximum   Time of Max       Flood    Ponded
                        Hours       Rate    Occurrence      Volume     Depth
  Node                 Flooded       LPS   days hr:min    10^6 ltr    Meters
  --------------------------------------------------------------------------
  YS02001748              0.01    303.40      0  02:44       0.001     0.000
  YS02001751              0.01    149.10      0  02:40       0.000     0.000
  YS02001754              0.01      6.53      0  02:45       0.000     0.000
  YS02001770              0.01      7.27      0  02:44       0.000     0.000
  YS02001779              2.73    396.85      0  03:30       1.497     0.000
  YS02001890              0.23    106.65      0  03:01       0.038     0.000
  YS02001907              0.65    620.19      0  03:01       0.740     0.000
  YS02001619              0.01     27.22      0  02:43       0.000     0.000
  YS02001629              0.01     40.99      0  02:42       0.001     0.000
  YS02001644              4.14   1133.46      0  03:26       7.315     0.000
  YS02001652              0.01     20.39      0  02:57       0.000     0.000
  YS02001655              0.01    116.70      0  02:38       0.000     0.000
  YS02001658              0.01    162.94      0  02:43       0.000     0.000
  YS02001661              0.01    166.46      0  02:57       0.000     0.000
  YS02001622              0.01     52.99      0  02:42       0.000     0.000
  YS02001649              0.09     46.58      0  02:58       0.005     0.000
  YS02001757              0.01     27.54      0  02:46       0.000     0.000
  YS02001625              1.19    317.15      0  03:01       0.559     0.000
  YS02163601              0.01      2.71      0  02:44       0.000     0.000
  YS02001790              0.01    125.64      0  02:41       0.000     0.000
  JK-storage              1.84    966.15      0  03:10       3.301     0.000
  XR-storage              4.88    662.94      0  03:10       3.667     0.000
  
  
  **********************
  Storage Volume Summary
  **********************
  
  --------------------------------------------------------------------------------------------------
                         Average     Avg  Evap Exfil       Maximum     Max    Time of Max    Maximum
                          Volume    Pcnt  Pcnt  Pcnt        Volume    Pcnt     Occurrence    Outflow
  Storage Unit           1000 m3    Full  Loss  Loss       1000 m3    Full    days hr:min        LPS
  --------------------------------------------------------------------------------------------------
  JK-storage               0.148      51     0     0         0.291     100       0  02:41     600.00
  CC-storage               3.061      20     0     0         3.877      25       0  03:41     400.00
  XR-storage               0.864      93     0     0         0.926     100       0  02:47     379.99
  
  
  ***********************
  Outfall Loading Summary
  ***********************
  
  -----------------------------------------------------------
                         Flow       Avg       Max       Total
                         Freq      Flow      Flow      Volume
  Outfall Node           Pcnt       LPS       LPS    10^6 ltr
  -----------------------------------------------------------
  WSC                   99.99    606.08   1057.13      14.884
  3                     84.72    257.16    568.97       4.477
  4                     35.96     55.94    214.28       0.436
  5                      0.00      0.00      0.00       0.000
  -----------------------------------------------------------
  System                55.17    919.18   1669.09      19.797
  
  
  ********************
  Link Flow Summary
  ********************
  
  -----------------------------------------------------------------------------
                                 Maximum  Time of Max   Maximum    Max/    Max/
                                  |Flow|   Occurrence   |Veloc|    Full    Full
  Link                 Type          LPS  days hr:min     m/sec    Flow   Depth
  -----------------------------------------------------------------------------
  WS02003066WSF200     CONDUIT    796.05     0  03:05      2.96    0.13    0.29
  WS02006287WS02006284 CONDUIT    610.96     0  03:02      2.31    0.28    0.37
  WS02006284WS02006280 CONDUIT    611.95     0  03:02      2.55    0.26    0.35
  WS02006280WS02006229 CONDUIT    612.07     0  03:02      4.12    0.13    0.24
  WS02006229WS02006228 CONDUIT    781.32     0  03:02      1.55    2.59    1.00
  WS02006256WS02006235 CONDUIT    166.25     0  00:01      2.58    1.76    1.00
  WS02006253WS02006251 CONDUIT    134.37     0  03:02      0.53    0.40    0.99
  WS02006252WS02006251 CONDUIT    400.81     0  07:40      3.19    1.47    1.00
  WS02006251WS02006249 CONDUIT    466.22     0  02:40      1.22    1.34    0.97
  WS02006249WS02006248 CONDUIT    358.21     0  07:41      1.17    1.96    0.91
  WS02006248WS02006247 CONDUIT    354.50     0  07:41      1.14    0.77    0.96
  WS02006247WS02006245 CONDUIT    350.66     0  07:41      1.14    2.78    1.00
  WS02006245WS02006243 CONDUIT    346.63     0  07:41      1.19    1.03    1.00
  WS02006243WS02006242 CONDUIT    339.56     0  07:42      1.07    0.73    1.00
  WS02006242WS02006240 CONDUIT    337.14     0  07:48      0.99    1.34    1.00
  WS02006240WS02006239 CONDUIT    337.93     0  07:21      1.09    1.06    1.00
  WS02006239WS02006238 CONDUIT    337.61     0  07:21      0.93    1.08    1.00
  WS02006238WS02006235 CONDUIT    336.86     0  07:21      1.25    0.75    1.00
  WS02006235WS02006234 CONDUIT    394.34     0  05:11      1.03    4.16    1.00
  WS02006234WS02006232 CONDUIT    392.63     0  05:11      1.13    0.79    1.00
  WS02006232WS02006231 CONDUIT    392.59     0  05:11      1.07    0.82    1.00
  WS02006231WS02006230 CONDUIT    390.59     0  05:12      1.33    5.92    1.00
  WS02006230WS02006229 CONDUIT    400.64     0  05:13      1.04    8.92    1.00
  WS02006228WS02006109 CONDUIT    781.34     0  03:02      1.55    3.41    1.00
  WS02006116WS02004401 CONDUIT    799.03     0  03:03      1.02    1.10    1.00
  WS02006115WS02006116 CONDUIT    798.86     0  03:03      1.02    1.03    1.00
  WS02006113WS02006111 CONDUIT    780.17     0  03:02      2.59    0.94    0.75
  WS02006112WS02006115 CONDUIT    798.57     0  03:03      1.02    0.47    1.00
  WS02006111WS02006112 CONDUIT    780.48     0  03:03      1.72    0.37    0.86
  WS02006110WS02006113 CONDUIT    782.54     0  03:02      1.68    0.71    0.88
  WS02006109WS02006110 CONDUIT    782.56     0  03:02      1.56    1.50    1.00
  WS02004411WS02004412 CONDUIT    795.47     0  03:04      1.14    1.13    0.83
  WS02004401WS02004402 CONDUIT    799.08     0  03:03      1.02    0.96    1.00
  WS02004413WS02003067 CONDUIT    795.27     0  03:04      1.39    0.34    0.69
  WS02004412WS02004413 CONDUIT    795.21     0  03:04      1.07    0.53    0.90
  WS02004410WS02004411 CONDUIT    796.27     0  03:04      1.13    1.09    0.84
  WS02004409WS02004410 CONDUIT    797.41     0  03:03      1.13    1.03    0.85
  WS02004407WS02004409 CONDUIT    799.13     0  03:03      1.61    0.28    0.60
  WS02004406WS02004407 CONDUIT    799.38     0  03:03      1.40    0.36    0.68
  WS02004405WS02004406 CONDUIT    799.35     0  03:03      1.02    1.58    1.00
  WS02004404WS02004405 CONDUIT    799.30     0  03:03      1.02    7.83    1.00
  WS02004403WS02004404 CONDUIT    799.14     0  03:03      1.02    0.58    1.00
  WS02004402WS02004403 CONDUIT    799.12     0  03:03      1.02    1.15    1.00
  WS02004139WS02001211 CONDUIT    373.80     0  01:30      0.81    0.47    0.57
  WS02004138WS02004139 CONDUIT    379.17     0  01:30      3.33    0.08    0.42
  WS02003067WS02003066 CONDUIT    795.81     0  03:05      1.50    0.26    0.48
  WS02001213WS02003059 CONDUIT    374.16     0  01:31      0.80    0.62    0.77
  WS02001212WS02001213 CONDUIT    375.77     0  01:31      1.31    0.58    0.45
  WS02001211WS02001212 CONDUIT    376.87     0  01:31      0.77    0.29    0.61
  WS02003072WS02003073 CONDUIT   1054.73     0  03:05      1.80    2.28    0.51
  WS02003069WS02003072 CONDUIT   1054.37     0  03:04      1.68    0.51    0.54
  WS02003060WS02003069 CONDUIT   1054.06     0  03:04      1.92    0.41    0.49
  WS02003059WS02003060 CONDUIT    371.56     0  01:32      0.93    0.24    0.68
  HS02004901HS02004770 CONDUIT     32.24     0  03:01      0.09    0.12    0.50
  HS02004876HS02004881 CONDUIT    119.32     0  03:01      1.17    1.27    0.15
  HS02004870HS02004876 CONDUIT     96.13     0  03:01      0.79    0.06    0.17
  HS02004842HS02004848 CONDUIT     15.11     0  03:01      0.07    0.01    0.33
  HS02004837HS02004842 CONDUIT     16.10     0  03:03      0.41    0.01    0.34
  HS02004830HS02004837 CONDUIT     61.24     0  03:01      0.66    0.06    0.13
  HS02004824HS02004830 CONDUIT     60.79     0  03:01      0.63    0.08    0.15
  HS02004817HS02004824 CONDUIT    117.39     0  03:02      0.30    0.05    0.56
  HS02004770HS02004777 CONDUIT    159.98     0  03:01      0.45    0.29    0.51
  HS02004799HS02004480 CONDUIT    387.38     0  03:01      1.00    0.49    0.56
  HS02004792HS02004799 CONDUIT    353.06     0  03:01      1.12    0.22    0.45
  HS02004788HS02004792 CONDUIT    202.14     0  03:02      1.22    0.13    0.24
  HS02004785HS02004788 CONDUIT    156.68     0  03:02      0.85    1.18    0.26
  HS02004777HS02004785 CONDUIT    157.13     0  03:01      0.53    0.19    0.42
  HS02004480HS02004478 CONDUIT    456.75     0  03:01      1.47    1.92    0.44
  HS02004479HS02004480 CONDUIT     74.07     0  03:02      0.22    0.07    0.53
  HS02004862HS02004870 CONDUIT     73.11     0  03:01      0.77    0.08    0.14
  HS02004848HS02004852 CONDUIT     35.11     0  03:01      0.52    0.04    0.10
  HS02004856HS02004862 CONDUIT     51.23     0  03:01      0.58    0.05    0.13
  HS02004852HS02004856 CONDUIT     35.02     0  03:02      0.32    0.04    0.16
  HS02004802HS02004478 CONDUIT    160.69     0  03:04      0.54    0.14    0.45
  HS02004478WS02006287 CONDUIT    609.83     0  03:02      2.03    0.17    0.33
  HS02004817HS02004807 CONDUIT    120.81     0  03:04      0.24    0.07    0.73
  HS02004807HS02004802 CONDUIT    156.92     0  03:03      0.45    0.30    0.51
  YS02001759YS02001757 CONDUIT    757.42     0  02:54      0.96    0.54    1.00
  YS02001762YS02001759 CONDUIT    379.02     0  02:54      0.48    0.44    1.00
  YS02001765YS02001762 CONDUIT    378.95     0  02:54      0.48    0.36    1.00
  YS02001770YS02001767 CONDUIT    378.53     0  02:54      0.48    1.50    1.00
  YS02001774YS02001770 CONDUIT    396.76     0  03:30      0.51    0.25    1.00
  YS02001779YS02001774 CONDUIT    396.92     0  03:30      0.51    0.20    1.00
  YS02001649YS02001757 CONDUIT    984.74     0  02:50      1.25    0.60    1.00
  YS02001767YS02001765 CONDUIT    379.07     0  02:54      0.48    0.48    1.00
  YS02006561YS02001783 CONDUIT    969.07     0  03:00      2.11    0.50    1.00
  YS02001783YS02001784 CONDUIT    968.98     0  03:00      1.93    1.34    1.00
  YS02001784YS02001785 CONDUIT    970.14     0  03:00      1.93    2.26    1.00
  YS02001788YS02001790 CONDUIT    970.27     0  03:01      2.31    0.72    1.00
  YS02001790YS02001791 CONDUIT    970.39     0  03:01      2.84    1.06    1.00
  YS02001791YS02001793 CONDUIT    970.47     0  03:01      5.63    0.42    1.00
  YS02001910YS02001907 CONDUIT    546.73     0  03:01      0.70    0.31    1.00
  YS02001786YS02001788 CONDUIT    970.11     0  03:00      2.22    1.87    1.00
  YS02001915YS02001910 CONDUIT    546.81     0  03:01      0.70    0.27    1.00
  YS02001918YS02001915 CONDUIT    285.08     0  02:53      0.44    0.16    1.00
  YS02001923YS02001920 CONDUIT    281.51     0  02:53      0.72    0.13    1.00
  YS02001926YS02001923 CONDUIT    273.13     0  02:53      0.82    0.39    0.97
  YS02001929YS02001926 CONDUIT    208.15     0  02:53      0.87    0.10    0.86
  YS02001920YS02001918 CONDUIT    284.28     0  02:53      0.70    0.27    1.00
  YS02001629YS02163301 CONDUIT    219.05     0  02:49      0.28    0.27    1.00
  YS02001619YS02001622 CONDUIT    338.11     0  03:01      0.60    0.50    1.00
  YS02001622YS02001625 CONDUIT    338.00     0  03:01      0.43    0.18    1.00
  YS02001625YS02001629 CONDUIT    219.03     0  02:49      0.28    0.10    1.00
  YS02163301YS02001633 CONDUIT    218.67     0  02:49      0.28    0.21    1.00
  YS02163601YS02164001 CONDUIT    461.72     0  02:49      0.59    0.41    1.00
  YS02164001YS02001641 CONDUIT    461.74     0  02:49      0.59    0.63    1.00
  YS02001641YS02001644 CONDUIT    461.51     0  02:49      0.59    1.49    1.00
  YS02001647YS02001649 CONDUIT    703.43     0  02:49      0.90    0.37    1.00
  YS02006553YS02006556 CONDUIT    672.20     0  03:31      0.86    0.58    1.00
  YS02006556YS02006558 CONDUIT    672.14     0  03:31      0.86    0.53    1.00
  YSB6556YSB1171       CONDUIT     41.33     0  03:02      0.13    0.04    0.80
  YS02001907YS02006553 CONDUIT    672.23     0  03:32      0.75    0.79    1.00
  YS02006558YS02006561 CONDUIT    968.98     0  03:01      3.43    2.14    1.00
  YS02001633YS02163601 CONDUIT    461.65     0  02:49      0.59    0.48    1.00
  YS02001644YS02001647 CONDUIT    703.31     0  02:49      0.90    0.41    1.00
  YS02001745YS02001748 CONDUIT    638.52     0  02:44      1.48    0.25    0.94
  YS02001748YS02001751 CONDUIT    399.69     0  03:01      1.03    0.20    1.00
  YS02001751YS02001754 CONDUIT    399.47     0  03:01      0.84    0.19    1.00
  YS02001754YS02001757 CONDUIT    399.69     0  03:01      0.51    0.16    1.00
  YS02001882YS02001884 CONDUIT     26.31     0  02:44      0.08    0.03    1.00
  YS02001884YS02001887 CONDUIT     62.13     0  02:45      0.08    0.08    1.00
  YS02001890YS02001895 CONDUIT    517.12     0  03:02      0.66    0.24    1.00
  YS02001895YS02001898 CONDUIT    517.18     0  03:02      0.66    0.90    1.00
  YS02001898YS02001901 CONDUIT    517.23     0  03:02      0.66    0.33    1.00
  YS02001901YS02001904 CONDUIT    517.10     0  03:02      0.66    0.80    1.00
  YS02001904YS02001907 CONDUIT    517.10     0  03:02      0.66    0.18    1.00
  YS02001887YS02001890 CONDUIT    623.26     0  03:01      0.79    1.07    1.00
  YS02001652YS02001649 CONDUIT    486.14     0  03:01      0.62    0.24    1.00
  YS02001655YS02001652 CONDUIT    485.69     0  03:01      0.89    0.24    1.00
  YS02001658YS02001655 CONDUIT    485.64     0  03:01      1.18    0.21    1.00
  YS02001661YS02001658 CONDUIT    629.56     0  02:42      1.56    0.25    1.00
  YS02001664YS02001661 CONDUIT    735.27     0  03:03      1.52    0.23    0.73
  YSB1154YSB6556       CONDUIT     41.77     0  03:01      0.19    0.08    0.69
  YSB1174YSB1171       CONDUIT     34.49     0  03:01      0.10    0.05    0.81
  YSB1171HS02004479    CONDUIT     72.19     0  03:02      0.54    0.05    0.65
  HS02004881HS02006253 CONDUIT    131.62     0  03:01      1.89    0.03    0.30
  YS02001793JiankangQianchi CONDUIT    970.60     0  03:01     12.50    0.08    1.00
  YS02001757CaochengTiaoxuchi CONDUIT   1913.81     0  02:51      2.66    0.84    1.00
  WSF200WS02003060     CONDUIT    797.29     0  03:05      1.97    0.18    0.39
  1                    CONDUIT   1057.13     0  03:06      3.38    0.37    0.42
  2                    CONDUIT    214.28     0  02:40      5.94    0.51    0.51
  3                    CONDUIT    568.97     0  03:00     10.00    0.91    0.75
  4                    CONDUIT      0.00     0  00:00      0.00    0.00    0.00
  CC-Pump-1            PUMP       200.00     0  02:30              1.00
  CC-Pump-2            PUMP       200.00     0  02:40              1.00
  JK-Pump-1            PUMP       300.00     0  00:00              1.00
  JK-Pump-2            PUMP       300.00     0  02:20              1.00
  XR-Pump-1            PUMP        95.00     0  00:00              1.00
  XR-Pump-2            PUMP        95.00     0  00:20              1.00
  XR-Pump-3            PUMP        95.00     0  00:00              1.00
  XR-Pump-4            PUMP        95.00     0  00:00              1.00
  
  
  ***************************
  Flow Classification Summary
  ***************************
  
  -------------------------------------------------------------------------------------
                      Adjusted    ---------- Fraction of Time in Flow Class ---------- 
                       /Actual         Up    Down  Sub   Sup   Up    Down  Norm  Inlet 
  Conduit               Length    Dry  Dry   Dry   Crit  Crit  Crit  Crit  Ltd   Ctrl  
  -------------------------------------------------------------------------------------
  WS02003066WSF200        1.00   0.05  0.01  0.00  0.00  0.94  0.00  0.00  0.64  0.00
  WS02006287WS02006284    1.00   0.04  0.01  0.00  0.60  0.36  0.00  0.00  0.67  0.00
  WS02006284WS02006280    1.00   0.04  0.00  0.00  0.00  0.00  0.00  0.96  0.00  0.00
  WS02006280WS02006229    1.00   0.04  0.00  0.00  0.00  0.00  0.00  0.96  0.00  0.00
  WS02006229WS02006228    1.00   0.00  0.00  0.00  0.99  0.00  0.00  0.01  0.00  0.00
  WS02006256WS02006235    1.00   0.00  0.00  0.00  1.00  0.00  0.00  0.00  0.00  0.00
  WS02006253WS02006251    1.00   0.03  0.01  0.00  0.96  0.00  0.00  0.00  0.00  0.00
  WS02006252WS02006251    1.00   0.07  0.00  0.00  0.00  0.00  0.93  0.00  0.00  0.00
  WS02006251WS02006249    1.00   0.00  0.00  0.00  1.00  0.00  0.00  0.00  0.24  0.00
  WS02006249WS02006248    1.00   0.00  0.02  0.00  0.91  0.00  0.07  0.00  0.00  0.00
  WS02006248WS02006247    1.00   0.02  0.00  0.00  0.98  0.00  0.00  0.00  0.12  0.00
  WS02006247WS02006245    1.00   0.02  0.00  0.00  0.98  0.00  0.00  0.00  0.00  0.00
  WS02006245WS02006243    1.00   0.01  0.00  0.00  0.95  0.00  0.00  0.04  0.01  0.00
  WS02006243WS02006242    1.00   0.01  0.00  0.00  0.99  0.00  0.00  0.00  0.22  0.00
  WS02006242WS02006240    1.00   0.00  0.00  0.00  1.00  0.00  0.00  0.00  0.00  0.00
  WS02006240WS02006239    1.00   0.00  0.00  0.00  0.97  0.00  0.00  0.03  0.02  0.00
  WS02006239WS02006238    1.00   0.00  0.00  0.00  1.00  0.00  0.00  0.00  0.00  0.00
  WS02006238WS02006235    1.00   0.00  0.00  0.00  1.00  0.00  0.00  0.00  0.00  0.00
  WS02006235WS02006234    1.00   0.00  0.00  0.00  0.96  0.00  0.04  0.00  0.00  0.00
  WS02006234WS02006232    1.00   0.00  0.00  0.00  1.00  0.00  0.00  0.00  0.04  0.00
  WS02006232WS02006231    1.00   0.00  0.00  0.00  0.99  0.00  0.00  0.00  0.00  0.00
  WS02006231WS02006230    1.00   0.00  0.00  0.00  0.66  0.00  0.34  0.00  0.00  0.00
  WS02006230WS02006229    1.00   0.00  0.00  0.00  0.99  0.00  0.00  0.01  0.01  0.00
  WS02006228WS02006109    1.00   0.00  0.00  0.00  1.00  0.00  0.00  0.00  0.00  0.00
  WS02006116WS02004401    1.00   0.02  0.00  0.00  0.98  0.00  0.00  0.00  0.00  0.00
  WS02006115WS02006116    1.00   0.02  0.00  0.00  0.97  0.00  0.00  0.01  0.00  0.00
  WS02006113WS02006111    1.00   0.02  0.00  0.00  0.03  0.96  0.00  0.00  0.11  0.00
  WS02006112WS02006115    1.00   0.02  0.00  0.00  0.98  0.00  0.00  0.00  0.00  0.00
  WS02006111WS02006112    1.00   0.02  0.00  0.00  0.98  0.00  0.00  0.00  0.90  0.00
  WS02006110WS02006113    1.00   0.01  0.01  0.00  0.98  0.00  0.00  0.00  0.00  0.00
  WS02006109WS02006110    1.00   0.00  0.01  0.00  0.98  0.00  0.01  0.00  0.00  0.00
  WS02004411WS02004412    1.00   0.04  0.00  0.00  0.96  0.00  0.00  0.00  0.00  0.00
  WS02004401WS02004402    1.00   0.02  0.00  0.00  0.98  0.00  0.00  0.00  0.00  0.00
  WS02004413WS02003067    1.00   0.04  0.01  0.00  0.00  0.00  0.95  0.00  0.00  0.00
  WS02004412WS02004413    1.00   0.04  0.00  0.00  0.96  0.00  0.00  0.00  0.03  0.00
  WS02004410WS02004411    1.00   0.04  0.00  0.00  0.96  0.00  0.00  0.00  0.03  0.00
  WS02004409WS02004410    1.00   0.04  0.00  0.00  0.96  0.00  0.00  0.00  0.03  0.00
  WS02004407WS02004409    1.00   0.04  0.00  0.00  0.96  0.00  0.00  0.00  0.89  0.00
  WS02004406WS02004407    1.00   0.00  0.04  0.00  0.96  0.00  0.00  0.00  0.00  0.00
  WS02004405WS02004406    1.00   0.00  0.00  0.00  1.00  0.00  0.00  0.00  0.01  0.00
  WS02004404WS02004405    1.00   0.00  0.00  0.00  1.00  0.00  0.00  0.00  0.00  0.00
  WS02004403WS02004404    1.00   0.00  0.02  0.00  0.98  0.00  0.00  0.00  0.01  0.00
  WS02004402WS02004403    1.00   0.02  0.00  0.00  0.98  0.00  0.00  0.00  0.00  0.00
  WS02004139WS02001211    1.00   0.00  0.00  0.00  1.00  0.00  0.00  0.00  0.00  0.00
  WS02004138WS02004139    1.00   0.00  0.00  0.00  0.99  0.01  0.00  0.00  1.00  0.00
  WS02003067WS02003066    1.00   0.05  0.00  0.00  0.94  0.00  0.00  0.00  0.00  0.00
  WS02001213WS02003059    1.00   0.00  0.00  0.00  0.99  0.00  0.00  0.00  0.00  0.00
  WS02001212WS02001213    1.00   0.00  0.00  0.00  0.88  0.00  0.11  0.00  0.00  0.00
  WS02001211WS02001212    1.00   0.00  0.00  0.00  1.00  0.00  0.00  0.00  0.00  0.00
  WS02003072WS02003073    1.00   0.00  0.00  0.00  0.00  0.00  0.00  1.00  0.00  0.00
  WS02003069WS02003072    1.00   0.00  0.00  0.00  0.99  0.01  0.00  0.00  0.25  0.00
  WS02003060WS02003069    1.00   0.00  0.00  0.00  0.98  0.02  0.00  0.00  0.14  0.00
  WS02003059WS02003060    1.00   0.00  0.00  0.00  1.00  0.00  0.00  0.00  0.01  0.00
  HS02004901HS02004770    1.00   0.04  0.00  0.00  0.96  0.00  0.00  0.00  0.01  0.00
  HS02004876HS02004881    1.00   0.02  0.00  0.00  0.87  0.11  0.00  0.00  0.00  0.00
  HS02004870HS02004876    1.00   0.00  0.00  0.00  0.99  0.00  0.00  0.00  0.95  0.00
  HS02004842HS02004848    1.00   0.00  0.04  0.00  0.96  0.00  0.00  0.00  0.58  0.00
  HS02004837HS02004842    1.00   0.00  0.00  0.00  0.99  0.01  0.00  0.00  0.11  0.00
  HS02004830HS02004837    1.00   0.00  0.00  0.00  1.00  0.00  0.00  0.00  0.99  0.00
  HS02004824HS02004830    1.00   0.00  0.00  0.00  1.00  0.00  0.00  0.00  0.01  0.00
  HS02004817HS02004824    1.00   0.00  0.00  0.00  1.00  0.00  0.00  0.00  0.98  0.00
  HS02004770HS02004777    1.00   0.00  0.04  0.00  0.96  0.00  0.00  0.00  0.04  0.00
  HS02004799HS02004480    1.00   0.00  0.02  0.00  0.95  0.00  0.02  0.00  0.00  0.00
  HS02004792HS02004799    1.00   0.00  0.00  0.00  0.99  0.01  0.00  0.00  0.98  0.00
  HS02004788HS02004792    1.00   0.00  0.00  0.00  0.99  0.01  0.00  0.00  0.98  0.00
  HS02004785HS02004788    1.00   0.00  0.00  0.00  1.00  0.00  0.00  0.00  0.00  0.00
  HS02004777HS02004785    1.00   0.00  0.00  0.00  1.00  0.00  0.00  0.00  0.15  0.00
  HS02004480HS02004478    1.00   0.04  0.00  0.00  0.68  0.00  0.00  0.28  0.00  0.00
  HS02004479HS02004480    1.00   0.03  0.00  0.00  0.97  0.00  0.00  0.00  0.13  0.00
  HS02004862HS02004870    1.00   0.00  0.00  0.00  1.00  0.00  0.00  0.00  0.06  0.00
  HS02004848HS02004852    1.00   0.04  0.00  0.00  0.96  0.00  0.00  0.00  0.64  0.00
  HS02004856HS02004862    1.00   0.00  0.05  0.00  0.95  0.00  0.00  0.00  0.79  0.00
  HS02004852HS02004856    1.00   0.04  0.00  0.00  0.96  0.00  0.00  0.00  0.81  0.00
  HS02004802HS02004478    1.00   0.04  0.00  0.00  0.96  0.00  0.00  0.00  0.03  0.00
  HS02004478WS02006287    1.00   0.05  0.00  0.00  0.74  0.22  0.00  0.00  0.66  0.00
  HS02004817HS02004807    1.00   0.00  0.04  0.00  0.96  0.00  0.00  0.00  0.01  0.00
  HS02004807HS02004802    1.00   0.04  0.00  0.00  0.96  0.00  0.00  0.00  0.00  0.00
  YS02001759YS02001757    1.00   0.00  0.00  0.00  1.00  0.00  0.00  0.00  0.17  0.00
  YS02001762YS02001759    1.00   0.00  0.00  0.00  1.00  0.00  0.00  0.00  0.04  0.00
  YS02001765YS02001762    1.00   0.00  0.00  0.00  1.00  0.00  0.00  0.00  0.17  0.00
  YS02001770YS02001767    1.00   0.00  0.00  0.00  1.00  0.00  0.00  0.00  0.00  0.00
  YS02001774YS02001770    1.00   0.00  0.04  0.00  0.96  0.00  0.00  0.00  0.04  0.00
  YS02001779YS02001774    1.00   0.00  0.00  0.00  1.00  0.00  0.00  0.00  0.22  0.00
  YS02001649YS02001757    1.00   0.00  0.00  0.00  1.00  0.00  0.00  0.00  0.17  0.00
  YS02001767YS02001765    1.00   0.00  0.00  0.00  1.00  0.00  0.00  0.00  0.01  0.00
  YS02006561YS02001783    1.00   0.06  0.00  0.00  0.34  0.60  0.00  0.00  0.51  0.00
  YS02001783YS02001784    1.00   0.00  0.06  0.00  0.94  0.00  0.00  0.00  0.01  0.00
  YS02001784YS02001785    1.00   0.00  0.00  0.00  1.00  0.00  0.00  0.00  0.21  0.00
  YS02001788YS02001790    1.00   0.00  0.00  0.00  0.45  0.55  0.00  0.00  0.48  0.00
  YS02001790YS02001791    1.00   0.00  0.00  0.00  0.43  0.57  0.00  0.00  0.42  0.00
  YS02001791YS02001793    1.00   0.00  0.00  0.00  0.42  0.58  0.00  0.00  0.01  0.00
  YS02001910YS02001907    1.00   0.00  0.00  0.00  0.98  0.00  0.00  0.02  0.13  0.00
  YS02001786YS02001788    1.00   0.00  0.00  0.00  0.42  0.58  0.00  0.00  0.00  0.00
  YS02001915YS02001910    1.00   0.00  0.00  0.00  0.99  0.01  0.00  0.00  0.19  0.00
  YS02001918YS02001915    1.00   0.00  0.01  0.00  0.98  0.01  0.00  0.00  0.56  0.00
  YS02001923YS02001920    1.00   0.00  0.00  0.00  1.00  0.00  0.00  0.00  0.83  0.00
  YS02001926YS02001923    1.00   0.00  0.03  0.00  0.17  0.00  0.79  0.00  0.00  0.00
  YS02001929YS02001926    1.00   0.00  0.04  0.00  0.96  0.00  0.00  0.00  0.75  0.00
  YS02001920YS02001918    1.00   0.00  0.01  0.00  0.99  0.00  0.00  0.00  0.00  0.00
  YS02001629YS02163301    1.00   0.05  0.00  0.00  0.95  0.00  0.00  0.00  0.00  0.00
  YS02001619YS02001622    1.00   0.04  0.00  0.00  0.96  0.00  0.00  0.00  0.00  0.00
  YS02001622YS02001625    1.00   0.04  0.00  0.00  0.96  0.00  0.00  0.00  0.08  0.00
  YS02001625YS02001629    1.00   0.04  0.02  0.00  0.93  0.00  0.01  0.00  0.00  0.00
  YS02163301YS02001633    1.00   0.00  0.05  0.00  0.95  0.00  0.00  0.00  0.00  0.00
  YS02163601YS02164001    1.00   0.00  0.03  0.00  0.97  0.00  0.00  0.00  0.00  0.00
  YS02164001YS02001641    1.00   0.01  0.03  0.00  0.97  0.00  0.00  0.00  0.06  0.00
  YS02001641YS02001644    1.00   0.00  0.01  0.00  0.99  0.00  0.00  0.00  0.00  0.00
  YS02001647YS02001649    1.00   0.00  0.05  0.00  0.95  0.00  0.00  0.00  0.01  0.00
  YS02006553YS02006556    1.00   0.01  0.00  0.00  0.99  0.00  0.00  0.00  0.03  0.00
  YS02006556YS02006558    1.00   0.00  0.00  0.00  1.00  0.00  0.00  0.00  0.00  0.00
  YSB6556YSB1171          1.00   0.03  0.01  0.00  0.96  0.00  0.00  0.00  0.00  0.00
  YS02001907YS02006553    1.00   0.00  0.02  0.00  0.98  0.00  0.00  0.00  0.00  0.00
  YS02006558YS02006561    1.00   0.06  0.00  0.00  0.22  0.73  0.00  0.00  0.45  0.00
  YS02001633YS02163601    1.00   0.00  0.01  0.00  0.99  0.00  0.00  0.00  0.16  0.00
  YS02001644YS02001647    1.00   0.00  0.05  0.00  0.95  0.00  0.00  0.00  0.00  0.00
  YS02001745YS02001748    1.00   0.00  0.00  0.00  0.90  0.01  0.00  0.09  0.04  0.00
  YS02001748YS02001751    1.00   0.00  0.00  0.00  0.98  0.02  0.00  0.00  0.15  0.00
  YS02001751YS02001754    1.00   0.00  0.00  0.00  0.94  0.00  0.00  0.06  0.02  0.00
  YS02001754YS02001757    1.00   0.00  0.00  0.00  0.99  0.01  0.00  0.00  0.21  0.00
  YS02001882YS02001884    1.00   0.05  0.00  0.00  0.95  0.00  0.00  0.00  0.00  0.00
  YS02001884YS02001887    1.00   0.03  0.01  0.00  0.96  0.00  0.00  0.00  0.00  0.00
  YS02001890YS02001895    1.00   0.00  0.05  0.00  0.95  0.00  0.00  0.00  0.00  0.00
  YS02001895YS02001898    1.00   0.05  0.00  0.00  0.94  0.00  0.01  0.00  0.00  0.00
  YS02001898YS02001901    1.00   0.05  0.00  0.00  0.95  0.00  0.00  0.00  0.03  0.00
  YS02001901YS02001904    1.00   0.05  0.00  0.00  0.95  0.00  0.00  0.00  0.00  0.00
  YS02001904YS02001907    1.00   0.00  0.05  0.00  0.95  0.00  0.00  0.00  0.00  0.00
  YS02001887YS02001890    1.00   0.00  0.00  0.00  0.98  0.00  0.02  0.00  0.00  0.00
  YS02001652YS02001649    1.00   0.00  0.00  0.00  1.00  0.00  0.00  0.00  0.19  0.00
  YS02001655YS02001652    1.00   0.00  0.00  0.00  0.94  0.00  0.00  0.06  0.03  0.00
  YS02001658YS02001655    1.00   0.00  0.04  0.00  0.93  0.02  0.00  0.00  0.13  0.00
  YS02001661YS02001658    1.00   0.04  0.00  0.00  0.90  0.06  0.00  0.00  0.08  0.00
  YS02001664YS02001661    1.00   0.04  0.00  0.00  0.89  0.07  0.00  0.00  0.22  0.00
  YSB1154YSB6556          1.00   0.04  0.00  0.00  0.96  0.00  0.00  0.00  0.02  0.00
  YSB1174YSB1171          1.00   0.03  0.01  0.00  0.96  0.00  0.00  0.00  0.00  0.00
  YSB1171HS02004479       1.00   0.03  0.00  0.00  0.97  0.00  0.00  0.00  0.11  0.00
  HS02004881HS02006253    1.00   0.03  0.00  0.00  0.73  0.03  0.00  0.21  0.58  0.00
  YS02001793JiankangQianchi    1.00   0.00  0.00  0.00  0.67  0.32  0.00  0.00  0.26  0.00
  YS02001757CaochengTiaoxuchi    1.00   0.00  0.07  0.00  0.93  0.00  0.00  0.00  0.00  0.00
  WSF200WS02003060        1.00   0.00  0.05  0.00  0.54  0.41  0.00  0.00  0.20  0.00
  1                       1.00   0.00  0.00  0.00  0.00  1.00  0.00  0.00  0.38  0.00
  2                       1.00   0.64  0.00  0.00  0.00  0.36  0.00  0.00  0.09  0.00
  3                       1.00   0.15  0.00  0.00  0.00  0.85  0.00  0.00  0.27  0.00
  4                       1.00   1.00  0.00  0.00  0.00  0.00  0.00  0.00  0.00  0.00
  
  
  *************************
  Conduit Surcharge Summary
  *************************
  
  ----------------------------------------------------------------------------
                                                           Hours        Hours 
                         --------- Hours Full --------   Above Full   Capacity
  Conduit                Both Ends  Upstream  Dnstream   Normal Flow   Limited
  ----------------------------------------------------------------------------
  WS02006229WS02006228        1.91      2.18      1.91      4.56         1.91
  WS02006256WS02006235        5.84      5.84      7.62      3.44         0.01
  WS02006253WS02006251        0.01      0.01      0.06      0.01         0.01
  WS02006252WS02006251        0.78      0.78      1.89      1.60         0.01
  WS02006251WS02006249        0.01      0.01      0.01      0.84         0.01
  WS02006249WS02006248        0.01      0.01      0.01      4.05         0.01
  WS02006248WS02006247        0.01      0.01      0.09      0.01         0.01
  WS02006247WS02006245        0.09      0.18      0.09      4.66         0.09
  WS02006245WS02006243        0.18      0.18      0.42      0.14         0.01
  WS02006243WS02006242        0.49      0.49      1.08      0.01         0.01
  WS02006242WS02006240        0.67      0.67      1.50      1.62         0.01
  WS02006240WS02006239        0.70      0.70      0.78      0.20         0.01
  WS02006239WS02006238        1.39      1.39      1.60      0.21         0.01
  WS02006238WS02006235        1.42      1.42      1.92      0.01         0.01
  WS02006235WS02006234        0.77      0.77      1.23      5.81         0.01
  WS02006234WS02006232        0.84      0.84      2.03      0.01         0.01
  WS02006232WS02006231        0.67      0.67      2.03      0.01         0.01
  WS02006231WS02006230        0.63      0.63      0.70      5.90         0.01
  WS02006230WS02006229        3.24      4.31      3.24      6.13         3.24
  WS02006228WS02006109        2.05      2.69      2.05      5.34         2.05
  WS02006116WS02004401        0.25      0.25      0.26      0.19         0.20
  WS02006115WS02006116        0.12      0.12      0.13      0.07         0.07
  WS02006112WS02006115        0.10      0.10      0.94      0.01         0.01
  WS02006111WS02006112        0.01      0.01      4.71      0.01         0.01
  WS02006110WS02006113        0.01      0.01      2.42      0.01         0.01
  WS02006109WS02006110        0.81      0.81      2.68      0.82         0.01
  WS02004411WS02004412        0.01      0.01      0.01      0.23         0.01
  WS02004401WS02004402        0.26      0.26      0.29      0.01         0.01
  WS02004410WS02004411        0.01      0.01      0.01      0.17         0.01
  WS02004409WS02004410        0.01      0.01      0.01      0.08         0.01
  WS02004406WS02004407        0.01      0.01      0.58      0.01         0.01
  WS02004405WS02004406        0.58      0.61      0.58      0.88         0.58
  WS02004404WS02004405        0.61      0.65      0.61      5.90         0.61
  WS02004403WS02004404        0.30      0.30      0.65      0.01         0.01
  WS02004402WS02004403        0.29      0.29      0.30      0.24         0.24
  WS02003072WS02003073        0.01      0.01      0.01      5.27         0.01
  HS02004876HS02004881        0.01      0.01      0.01      0.17         0.01
  HS02004785HS02004788        0.01      0.01      0.01      0.10         0.01
  HS02004480HS02004478        0.01      0.01      0.01      0.52         0.01
  YS02001759YS02001757        5.54      5.54      5.62      0.01         0.01
  YS02001762YS02001759        5.52      5.52      5.54      0.01         0.01
  YS02001765YS02001762        5.49      5.49      5.52      0.01         0.01
  YS02001770YS02001767        5.47      5.47      5.47      0.30         0.73
  YS02001774YS02001770        5.46      5.46      5.51      0.01         0.01
  YS02001779YS02001774        5.32      5.32      5.51      0.01         0.01
  YS02001649YS02001757        5.52      5.52      5.62      0.01         0.01
  YS02001767YS02001765        5.47      5.47      5.49      0.01         0.01
  YS02006561YS02001783        0.91      0.91      1.45      0.01         0.01
  YS02001783YS02001784        1.45      1.45      1.51      1.32         1.23
  YS02001784YS02001785        1.45      1.51      1.45      2.30         1.45
  YS02001788YS02001790        1.44      1.44      2.00      0.01         0.01
  YS02001790YS02001791        2.00      2.00      2.21      0.75         0.75
  YS02001791YS02001793        2.21      2.21      2.52      0.01         0.01
  YS02001910YS02001907        1.22      1.22      1.67      0.01         0.01
  YS02001786YS02001788        1.44      1.45      1.44      1.84         1.44
  YS02001915YS02001910        1.02      1.02      1.22      0.01         0.01
  YS02001918YS02001915        0.79      0.79      1.02      0.01         0.01
  YS02001923YS02001920        0.62      0.62      0.82      0.01         0.01
  YS02001926YS02001923        0.01      0.01      0.01      0.01         0.01
  YS02001929YS02001926        0.01      0.01      0.01      0.01         0.01
  YS02001920YS02001918        0.79      0.79      0.82      0.01         0.01
  YS02001629YS02163301        5.45      5.45      5.46      0.01         0.01
  YS02001619YS02001622        5.16      5.16      5.20      0.01         0.01
  YS02001622YS02001625        5.20      5.20      5.43      0.01         0.01
  YS02001625YS02001629        5.17      5.17      5.43      0.01         0.01
  YS02163301YS02001633        5.46      5.46      5.49      0.01         0.01
  YS02163601YS02164001        5.49      5.49      5.52      0.01         0.01
  YS02164001YS02001641        5.49      5.49      5.50      0.01         0.02
  YS02001641YS02001644        5.50      5.50      5.50      1.47         1.49
  YS02001647YS02001649        5.41      5.41      5.52      0.01         0.01
  YS02006553YS02006556        1.42      1.42      1.72      0.01         0.01
  YS02006556YS02006558        1.56      1.56      1.78      0.01         0.01
  YS02001907YS02006553        2.24      2.24      2.45      0.01         0.01
  YS02006558YS02006561        1.11      1.38      1.11      2.09         1.11
  YS02001633YS02163601        5.48      5.48      5.52      0.01         0.01
  YS02001644YS02001647        5.41      5.41      5.50      0.01         0.01
  YS02001745YS02001748        0.01      0.01      5.04      0.01         0.01
  YS02001748YS02001751        5.07      5.07      5.14      0.01         0.01
  YS02001751YS02001754        5.14      5.14      5.34      0.01         0.01
  YS02001754YS02001757        5.41      5.41      5.62      0.01         0.01
  YS02001882YS02001884        1.03      1.03      1.06      0.01         0.01
  YS02001884YS02001887        1.12      1.12      1.14      0.01         0.01
  YS02001890YS02001895        1.01      1.01      1.23      0.01         0.01
  YS02001895YS02001898        0.99      0.99      1.01      0.01         0.01
  YS02001898YS02001901        1.02      1.02      1.11      0.01         0.01
  YS02001901YS02001904        1.09      1.09      1.11      0.01         0.01
  YS02001904YS02001907        1.09      1.09      1.74      0.01         0.01
  YS02001887YS02001890        1.17      1.17      1.21      0.07         0.01
  YS02001652YS02001649        5.42      5.42      5.52      0.01         0.01
  YS02001655YS02001652        5.18      5.18      5.40      0.01         0.01
  YS02001658YS02001655        5.06      5.06      5.18      0.01         0.01
  YS02001661YS02001658        0.23      0.23      5.06      0.01         0.01
  YS02001664YS02001661        0.01      0.01      1.23      0.01         0.01
  YS02001793JiankangQianchi        2.49      2.49      3.79      0.01         0.01
  YS02001757CaochengTiaoxuchi        4.85      4.85      5.62      0.01         0.01
  
  
  ***************
  Pumping Summary
  ***************
  
  ---------------------------------------------------------------------------------------------------------
                                                  Min       Avg       Max     Total     Power    % Time Off
                        Percent   Number of      Flow      Flow      Flow    Volume     Usage    Pump Curve
  Pump                 Utilized   Start-Ups       LPS       LPS       LPS  10^6 ltr     Kw-hr    Low   High
  ---------------------------------------------------------------------------------------------------------
  CC-Pump-1               61.64           9      0.00    123.12    200.00     2.135      2.84    0.0    8.1
  CC-Pump-2               55.27           4      0.00    146.21    200.00     2.255      2.75    0.0    5.2
  JK-Pump-1               76.60           7      0.00    189.46    300.00     3.100     33.07    0.0    0.0
  JK-Pump-2               78.71           6      0.00    182.94    300.00     3.219     34.46    0.0    0.0
  XR-Pump-1               82.97           8      0.00     67.29     95.00     1.596     12.59    0.0    0.0
  XR-Pump-2               85.09           7      0.00     71.13     95.00     1.653     13.59    0.0    0.0
  XR-Pump-3               85.09           9      0.00     59.28     95.00     1.454     12.55    0.0    0.0
  XR-Pump-4               85.10          10      0.00     63.04     95.00     1.511     11.78    0.0    0.0
  

  Analysis begun on:  Tue Jan  4 20:58:23 2022
  Analysis ended on:  Tue Jan  4 20:58:27 2022
  Total elapsed time: 00:00:04