
  EPA STORM WATER MANAGEMENT MODEL - VERSION 5.1 (Build 5.3.0.dev0)
  --------------------------------------------------------------

  WARNING 04: minimum elevation drop used for Conduit WS02004404WS02004405
  WARNING 03: negative offset ignored for Link YS02001904YS02001907
  
  *********************************************************
  NOTE: The summary statistics displayed in this report are
  based on results found at every computational time step,  
  not just on results from each reporting time step.
  *********************************************************
  
  ****************
  Analysis Options
  ****************
  Flow Units ............... LPS
  Process Models:
    Rainfall/Runoff ........ YES
    RDII ................... NO
    Snowmelt ............... NO
    Groundwater ............ NO
    Flow Routing ........... YES
    Ponding Allowed ........ NO
    Water Quality .......... NO
  Infiltration Method ...... HORTON
  Flow Routing Method ...... DYNWAVE
  Surcharge Method ......... EXTRAN
  Starting Date ............ 08/28/2015 08:00:00
  Ending Date .............. 08/28/2015 15:50:00
  Antecedent Dry Days ...... 8.0
  Report Time Step ......... 00:01:00
  Wet Time Step ............ 00:01:00
  Dry Time Step ............ 00:01:00
  Routing Time Step ........ 5.00 sec
  Variable Time Step ....... YES
  Maximum Trials ........... 8
  Number of Threads ........ 4
  Head Tolerance ........... 0.001500 m
  
  
  **************************        Volume         Depth
  Runoff Quantity Continuity     hectare-m            mm
  **************************     ---------       -------
  Total Precipitation ......         5.151        11.277
  Evaporation Loss .........         0.000         0.000
  Infiltration Loss ........         1.323         2.897
  Surface Runoff ...........         2.817         6.167
  Final Storage ............         1.011         2.215
  Continuity Error (%) .....        -0.015
  
  
  **************************        Volume        Volume
  Flow Routing Continuity        hectare-m      10^6 ltr
  **************************     ---------     ---------
  Dry Weather Inflow .......         0.616         6.165
  Wet Weather Inflow .......         2.816        28.156
  Groundwater Inflow .......         0.000         0.000
  RDII Inflow ..............         0.000         0.000
  External Inflow ..........         0.102         1.024
  External Outflow .........         1.718        17.177
  Flooding Loss ............         1.278        12.779
  Evaporation Loss .........         0.000         0.000
  Exfiltration Loss ........         0.000         0.000
  Initial Stored Volume ....         0.076         0.761
  Final Stored Volume ......         0.647         6.470
  Continuity Error (%) .....        -0.889
  
  
  *************************
  Highest Continuity Errors
  *************************
  Node HS02004842 (17.04%)
  Node YS02001884 (10.87%)
  Node JK-storage (-3.52%)
  Node YSB1171 (3.39%)
  Node HS02004817 (3.15%)
  
  
  ***************************
  Time-Step Critical Elements
  ***************************
  Link WS02006252WS02006251 (44.66%)
  Link 3 (42.64%)
  Link WS02006238WS02006235 (4.49%)
  Link WS02006280WS02006229 (2.31%)
  
  
  ********************************
  Highest Flow Instability Indexes
  ********************************
  Link YS02001619YS02001622 (38)
  Link YS02001629YS02163301 (38)
  Link YS02163601YS02164001 (38)
  Link YS02163301YS02001633 (38)
  Link WS02006113WS02006111 (38)
  
  
  *************************
  Routing Time Step Summary
  *************************
  Minimum Time Step           :     0.03 sec
  Average Time Step           :     0.84 sec
  Maximum Time Step           :     5.00 sec
  Percent in Steady State     :    -0.00
  Average Iterations per Step :     4.43
  Percent Not Converging      :    20.37
  
  
  ***************************
  Subcatchment Runoff Summary
  ***************************
  
  ------------------------------------------------------------------------------------------------------------------------------
                            Total      Total      Total      Total     Imperv       Perv      Total       Total     Peak  Runoff
                           Precip      Runon       Evap      Infil     Runoff     Runoff     Runoff      Runoff   Runoff   Coeff
  Subcatchment                 mm         mm         mm         mm         mm         mm         mm    10^6 ltr      LPS
  ------------------------------------------------------------------------------------------------------------------------------
  sub0                      11.28       0.00       0.00       0.79       9.22       0.00       9.22        0.01     1.44   0.818
  sub1                      11.28       0.00       0.00       1.24       8.78       0.00       8.78        0.06    10.11   0.778
  sub2                      11.28       0.00       0.00       4.17       6.20       0.00       6.20        0.06     9.79   0.549
  sub3                      11.28       0.00       0.00       4.17       6.16       0.00       6.16        0.14    22.44   0.546
  sub4                      11.28       0.00       0.00       1.24       8.63       0.00       8.63        0.18    27.35   0.765
  sub5                      11.28       0.00       0.00       0.79       9.17       0.00       9.17        0.10    18.00   0.813
  sub7                      11.28       0.00       0.00       1.01       9.01       0.00       9.01        0.03     5.34   0.799
  sub8                      11.28       0.00       0.00       1.01       9.00       0.00       9.00        0.06    10.08   0.798
  sub9                      11.28       0.00       0.00       1.01       8.99       0.00       8.99        0.04     7.58   0.798
  sub10                     11.28       0.00       0.00       0.90       9.08       0.00       9.08        0.10    17.43   0.805
  sub11                     11.28       0.00       0.00       0.90       9.10       0.00       9.10        0.11    18.56   0.807
  sub12                     11.28       0.00       0.00       1.47       8.62       0.00       8.62        0.08    13.79   0.765
  sub14                     11.28       0.00       0.00       1.01       8.99       0.00       8.99        0.09    14.98   0.797
  sub15                     11.28       0.00       0.00       3.38       6.91       0.00       6.91        0.12    20.76   0.613
  sub16                     11.28       0.00       0.00       3.72       6.64       0.00       6.64        0.07    12.34   0.589
  sub17                     11.28       0.00       0.00       3.61       6.73       0.00       6.73        0.06    10.18   0.597
  sub22                     11.28       0.00       0.00       4.85       5.64       0.00       5.64        0.36    62.58   0.500
  sub23                     11.28       0.00       0.00       4.17       6.23       0.00       6.23        0.30    52.29   0.553
  sub60                     11.28       0.00       0.00       1.35       7.08       0.00       7.08        2.14   214.31   0.627
  sub61                     11.28       0.00       0.00       1.92       7.22       0.00       7.22        2.23   246.69   0.640
  sub62                     11.28       0.00       0.00       0.90       7.84       0.00       7.84        2.41   259.66   0.695
  sub63                     11.28       0.00       0.00       3.27       6.33       0.00       6.33        1.92   219.77   0.561
  sub64                     11.28       0.00       0.00       1.69       6.79       0.00       6.79        2.06   204.52   0.602
  sub65                     11.28       0.00       0.00       1.47       6.90       0.00       6.90        2.12   208.50   0.612
  sub66                     11.28       0.00       0.00       3.27       5.83       0.00       5.83        1.79   183.42   0.517
  sub67                     11.28       0.00       0.00       0.90       8.30       0.00       8.30        2.56   301.39   0.736
  sub68                     11.28       0.00       0.00       1.58       7.60       0.00       7.60        2.34   264.96   0.674
  sub69                     11.28       0.00       0.00       1.69       7.90       0.00       7.90        1.85   237.25   0.701
  sub70                     11.28       8.07       0.00       6.54      10.49       0.03      10.52        2.41   252.63   0.544
  sub71                     11.28       0.00       0.00       0.90       7.63       0.00       7.63        1.80   186.96   0.676
  sub72                     11.28       0.00       0.00       0.79       6.02       0.00       6.02        1.23   100.40   0.534
  sub73                     11.28      10.24       0.00       7.30      11.40       0.02      11.42        2.68   238.40   0.531
  sub74                     11.28       0.00       0.00       8.46       2.36       0.00       2.36        0.94   126.51   0.209
  
  
  ******************
  Node Depth Summary
  ******************
  
  ---------------------------------------------------------------------------------
                                 Average  Maximum  Maximum  Time of Max    Reported
                                   Depth    Depth      HGL   Occurrence   Max Depth
  Node                 Type       Meters   Meters   Meters  days hr:min      Meters
  ---------------------------------------------------------------------------------
  WS02001211           JUNCTION     0.60     0.76     5.60     0  07:20        0.76
  WS02001212           JUNCTION     0.34     0.46     5.52     0  07:20        0.46
  WS02001213           JUNCTION     0.58     0.69     5.45     0  06:12        0.69
  WS02003069           JUNCTION     0.41     0.50     5.08     0  02:08        0.50
  WS02003072           JUNCTION     0.48     0.56     4.93     0  02:08        0.56
  WS02003073           JUNCTION     0.29     0.34     4.41     0  02:09        0.34
  WS02003060           JUNCTION     0.37     0.44     5.37     0  02:07        0.44
  WS02003066           JUNCTION     0.23     0.31     5.87     0  02:05        0.31
  WS02003059           JUNCTION     0.64     0.73     5.42     0  06:12        0.73
  WS02003067           JUNCTION     0.58     0.72     6.04     0  02:05        0.72
  WS02004401           JUNCTION     0.68     0.91     6.91     0  02:02        0.91
  WS02004402           JUNCTION     0.71     0.93     6.89     0  02:03        0.93
  WS02004403           JUNCTION     0.73     0.94     6.87     0  02:03        0.94
  WS02004404           JUNCTION     0.81     1.02     6.87     0  02:04        1.01
  WS02004406           JUNCTION     0.81     0.99     6.82     0  02:03        0.99
  WS02004409           JUNCTION     0.50     0.71     6.48     0  02:05        0.71
  WS02004410           JUNCTION     0.52     0.72     6.44     0  02:05        0.72
  WS02004411           JUNCTION     0.53     0.73     6.41     0  02:05        0.73
  WS02004412           JUNCTION     0.55     0.73     6.37     0  02:06        0.73
  WS02004413           JUNCTION     0.70     0.89     6.36     0  02:04        0.89
  WS02004405           JUNCTION     0.80     1.00     6.85     0  02:03        1.00
  WS02006109           JUNCTION     0.76     1.03     7.65     0  02:02        1.03
  WS02006110           JUNCTION     0.75     0.96     7.55     0  02:01        0.96
  WS02006111           JUNCTION     0.22     0.30     7.01     0  02:01        0.30
  WS02006112           JUNCTION     0.85     1.19     7.07     0  02:04        1.17
  WS02006113           JUNCTION     0.34     0.48     7.37     0  02:01        0.48
  WS02006115           JUNCTION     0.57     0.82     6.95     0  02:02        0.81
  WS02006116           JUNCTION     0.65     0.89     6.93     0  02:02        0.89
  WS02006230           JUNCTION     0.73     1.09     7.83     0  02:00        1.09
  WS02006231           JUNCTION     0.48     0.76     7.88     0  02:00        0.76
  WS02006232           JUNCTION     0.62     0.88     7.92     0  02:00        0.88
  WS02006234           JUNCTION     0.53     0.81     7.97     0  02:00        0.81
  WS02006235           JUNCTION     0.57     0.84     8.00     0  02:00        0.84
  WS02006238           JUNCTION     0.59     0.86     8.01     0  02:00        0.86
  WS02006240           JUNCTION     0.48     0.78     8.07     0  02:00        0.78
  WS02006242           JUNCTION     0.54     0.84     8.11     0  02:00        0.84
  WS02006243           JUNCTION     0.41     0.73     8.15     0  02:00        0.73
  WS02006245           JUNCTION     0.39     0.70     8.18     0  02:00        0.69
  WS02006247           JUNCTION     0.41     0.70     8.20     0  02:00        0.70
  WS02006248           JUNCTION     0.36     0.63     8.22     0  02:00        0.63
  WS02006249           JUNCTION     0.39     0.64     8.24     0  02:00        0.64
  WS02006239           JUNCTION     0.55     0.83     8.04     0  02:00        0.83
  WS02006251           JUNCTION     0.38     0.68     8.35     0  02:00        0.68
  WS02006252           JUNCTION     0.33     0.59     8.83     0  03:19        0.59
  WS02006253           JUNCTION     0.41     0.71     8.35     0  02:00        0.71
  WS02006256           JUNCTION     1.04     1.20     8.14     0  04:30        1.20
  WS02004138           JUNCTION     0.13     0.19     7.44     0  07:15        0.19
  WS02004407           JUNCTION     0.23     0.31     6.63     0  02:03        0.31
  WS02006228           JUNCTION     0.76     1.09     7.74     0  02:02        1.08
  WS02006229           JUNCTION     0.74     1.09     7.78     0  02:01        1.09
  WS02006280           JUNCTION     0.07     0.16     8.44     0  02:09        0.16
  WS02006284           JUNCTION     0.36     0.51     8.91     0  02:09        0.51
  WS02006287           JUNCTION     0.10     0.24     9.20     0  02:09        0.24
  WSF200               JUNCTION     0.22     0.32     5.55     0  02:05        0.32
  HS02004901           JUNCTION     0.12     0.25    10.07     0  02:07        0.25
  HS02004881           JUNCTION     0.01     0.03     9.06     0  02:08        0.03
  HS02004876           JUNCTION     0.04     0.11     9.14     0  02:05        0.11
  HS02004870           JUNCTION     0.01     0.05     9.34     0  02:08        0.05
  HS02004862           JUNCTION     0.02     0.06     9.44     0  02:09        0.06
  HS02004856           JUNCTION     0.08     0.11     9.54     0  02:09        0.11
  HS02004852           JUNCTION     0.01     0.04     9.55     0  02:09        0.04
  HS02004848           JUNCTION     0.01     0.04     9.64     0  02:09        0.04
  HS02004842           JUNCTION     0.33     0.37     9.64     0  02:09        0.37
  HS02004837           JUNCTION     0.03     0.06     9.64     0  02:09        0.06
  HS02004830           JUNCTION     0.04     0.07     9.54     0  02:09        0.07
  HS02004824           JUNCTION     0.02     0.05     9.45     0  02:10        0.05
  HS02004817           JUNCTION     0.44     0.56     9.40     0  02:09        0.56
  HS02004807           JUNCTION     0.12     0.23     9.40     0  02:09        0.23
  HS02004802           JUNCTION     0.16     0.26     9.39     0  02:09        0.26
  HS02004799           JUNCTION     0.12     0.28     9.49     0  02:07        0.28
  HS02004792           JUNCTION     0.03     0.11     9.63     0  02:07        0.11
  HS02004788           JUNCTION     0.03     0.08     9.98     0  02:08        0.08
  HS02004785           JUNCTION     0.05     0.15    10.05     0  02:08        0.15
  HS02004777           JUNCTION     0.15     0.27    10.06     0  02:07        0.27
  HS02004770           JUNCTION     0.12     0.24    10.07     0  02:07        0.24
  HS02004480           JUNCTION     0.08     0.22     9.46     0  02:07        0.22
  HS02004479           JUNCTION     0.12     0.26     9.46     0  02:08        0.26
  HS02004478           JUNCTION     0.06     0.15     9.38     0  02:08        0.15
  YS02001745           JUNCTION     0.70     0.89     8.41     0  03:03        0.89
  YS02001748           JUNCTION     1.10     1.50     8.57     0  02:26        1.33
  YS02001751           JUNCTION     1.28     1.68     8.56     0  02:20        1.54
  YS02001754           JUNCTION     1.54     1.82     8.43     0  03:04        1.82
  YS02001762           JUNCTION     1.74     2.03     8.43     0  03:02        2.02
  YS02001765           JUNCTION     1.69     1.98     8.43     0  02:59        1.96
  YS02001767           JUNCTION     1.65     1.93     8.42     0  03:02        1.92
  YS02001770           JUNCTION     1.65     1.91     8.41     0  03:05        1.90
  YS02001774           JUNCTION     1.72     1.98     8.40     0  03:04        1.96
  YS02001779           JUNCTION     1.46     1.68     8.37     0  02:37        1.68
  YS02001882           JUNCTION     0.45     1.18     7.90     0  02:57        1.18
  YS02001884           JUNCTION     0.54     1.28     7.90     0  02:56        1.28
  YS02001759           JUNCTION     1.77     2.07     8.43     0  02:57        2.06
  YS02001887           JUNCTION     0.62     1.37     7.90     0  02:58        1.36
  YS02001890           JUNCTION     0.65     1.39     7.90     0  02:56        1.38
  YS02001898           JUNCTION     0.42     1.15     7.88     0  02:57        1.14
  YS02001901           JUNCTION     0.54     1.28     7.88     0  02:57        1.26
  YS02001904           JUNCTION     0.52     1.24     7.87     0  02:57        1.24
  YS02001907           JUNCTION     0.84     1.59     7.88     0  02:59        1.58
  YS02001910           JUNCTION     0.63     1.37     7.88     0  02:57        1.37
  YS02001915           JUNCTION     0.43     1.16     7.88     0  02:57        1.16
  YS02001918           JUNCTION     0.19     0.81     7.88     0  02:58        0.81
  YS02001619           JUNCTION     1.25     1.61     8.54     0  02:20        1.47
  YS02001629           JUNCTION     1.60     1.85     8.40     0  02:22        1.85
  YS02001641           JUNCTION     1.70     1.93     8.37     0  02:35        1.93
  YS02001644           JUNCTION     1.70     1.92     8.35     0  02:35        1.92
  YS02001652           JUNCTION     1.55     2.12     8.72     0  02:41        1.92
  YS02001655           JUNCTION     1.31     2.16     9.01     0  02:41        1.78
  YS02001920           JUNCTION     0.29     0.88     7.89     0  02:58        0.87
  YS02001923           JUNCTION     0.13     0.62     7.88     0  02:57        0.62
  YS02001926           JUNCTION     0.21     0.44     7.88     0  02:58        0.44
  YS02001929           JUNCTION     0.10     0.17     7.87     0  02:58        0.17
  YS02001658           JUNCTION     1.04     2.30     9.44     0  02:21        1.55
  YS02001661           JUNCTION     0.81     2.22     9.62     0  02:41        1.35
  YS02001664           JUNCTION     0.36     0.57     8.50     0  02:39        0.56
  YS02001622           JUNCTION     1.27     1.62     8.52     0  02:20        1.49
  YS02001633           JUNCTION     1.69     1.95     8.40     0  02:35        1.93
  YS02001649           JUNCTION     1.74     2.05     8.44     0  02:37        2.05
  YS02001757           JUNCTION     1.87     2.18     8.44     0  03:06        2.17
  YS02001895           JUNCTION     0.41     1.14     7.89     0  02:57        1.14
  YS02001625           JUNCTION     1.55     1.78     8.38     0  02:23        1.78
  YS02163301           JUNCTION     1.63     1.89     8.40     0  02:30        1.87
  YS02163601           JUNCTION     1.74     1.99     8.39     0  02:35        1.98
  YS02164001           JUNCTION     1.68     1.92     8.38     0  02:35        1.91
  YS02001647           JUNCTION     1.53     1.81     8.42     0  02:37        1.79
  YSB1154              JUNCTION     0.26     0.41     9.47     0  02:08        0.41
  YSB6556              JUNCTION     0.15     0.30     9.47     0  02:07        0.30
  YSB1174              JUNCTION     0.21     0.36     9.47     0  02:08        0.36
  YSB1171              JUNCTION     0.41     0.56     9.47     0  02:08        0.56
  YS02006553           JUNCTION     0.85     1.58     7.86     0  02:57        1.57
  YS02006561           JUNCTION     0.25     0.80     7.46     0  02:57        0.80
  YS02006556           JUNCTION     0.82     1.53     7.84     0  02:58        1.53
  YS02006558           JUNCTION     0.86     1.57     7.84     0  02:57        1.56
  YS02001783           JUNCTION     0.47     1.37     7.51     0  02:12        1.22
  YS02001784           JUNCTION     0.50     1.35     7.42     0  02:12        1.20
  YS02001786           JUNCTION     0.45     1.27     7.30     0  02:12        1.09
  YS02001788           JUNCTION     0.40     1.25     7.23     0  02:12        1.00
  YS02001790           JUNCTION     0.52     1.96     7.60     0  02:10        1.21
  YS02001791           JUNCTION     0.51     2.02     7.49     0  02:10        1.24
  YS02001793           JUNCTION     0.68     3.05     7.88     0  02:09        1.79
  WS02004139           JUNCTION     0.54     0.71     5.62     0  07:20        0.71
  WSC                  OUTFALL      0.28     0.34     1.01     0  02:09        0.34
  3                    OUTFALL      0.09     0.20     6.20     0  04:30        0.20
  4                    OUTFALL      0.01     0.14     7.14     0  02:00        0.14
  5                    OUTFALL      0.00     0.00     5.00     0  00:00        0.00
  JK-storage           STORAGE      2.73     5.80     6.60     0  02:11        5.80
  CC-storage           STORAGE      1.11     1.40     8.40     0  03:02        1.40
  XR-storage           STORAGE      7.42     7.72     5.72     0  01:53        7.72
  
  
  *******************
  Node Inflow Summary
  *******************
  
  -------------------------------------------------------------------------------------------------
                                  Maximum  Maximum                  Lateral       Total        Flow
                                  Lateral    Total  Time of Max      Inflow      Inflow     Balance
                                   Inflow   Inflow   Occurrence      Volume      Volume       Error
  Node                 Type           LPS      LPS  days hr:min    10^6 ltr    10^6 ltr     Percent
  -------------------------------------------------------------------------------------------------
  WS02001211           JUNCTION      7.35   387.45     0  07:20       0.207        5.48       0.557
  WS02001212           JUNCTION      0.00   387.20     0  07:20           0        5.45       0.300
  WS02001213           JUNCTION      0.00   387.05     0  07:20           0        5.44       0.366
  WS02003069           JUNCTION      0.32   718.64     0  02:07     0.00902        13.6       0.192
  WS02003072           JUNCTION      0.00   718.29     0  02:08           0        13.6       0.240
  WS02003073           JUNCTION      1.82   720.00     0  02:08      0.0514        13.6       0.263
  WS02003060           JUNCTION     16.53   719.06     0  02:07       0.466        13.6       0.185
  WS02003066           JUNCTION      0.00   602.13     0  02:05           0        7.79       0.056
  WS02003059           JUNCTION      0.00   386.85     0  07:20           0        5.42       0.641
  WS02003067           JUNCTION      0.00   601.97     0  02:05           0         7.8       0.119
  WS02004401           JUNCTION      0.00   606.02     0  02:02           0        8.04       0.269
  WS02004402           JUNCTION      0.00   605.55     0  02:03           0        8.01       0.253
  WS02004403           JUNCTION      0.00   604.87     0  02:03           0        7.99       0.230
  WS02004404           JUNCTION      0.16   606.54     0  02:04     0.00457        7.98       0.174
  WS02004406           JUNCTION      0.00   604.89     0  02:03           0        7.95       0.423
  WS02004409           JUNCTION      0.00   603.96     0  02:03           0        7.91       0.205
  WS02004410           JUNCTION      0.00   603.19     0  02:03           0        7.89       0.232
  WS02004411           JUNCTION      0.00   602.72     0  02:04           0        7.87       0.237
  WS02004412           JUNCTION      0.00   602.36     0  02:04           0        7.85       0.256
  WS02004413           JUNCTION      0.00   602.14     0  02:04           0        7.83       0.380
  WS02004405           JUNCTION      0.04   608.54     0  02:04     0.00107        7.97       0.259
  WS02006109           JUNCTION      1.23   594.18     0  02:00      0.0347         8.1       0.262
  WS02006110           JUNCTION      0.00   594.18     0  02:00           0        8.08       0.247
  WS02006111           JUNCTION      0.00   622.14     0  02:01           0        8.05       0.057
  WS02006112           JUNCTION     10.18   612.99     0  02:01      0.0577        8.11       0.364
  WS02006113           JUNCTION      0.00   594.80     0  02:02           0        8.06       0.121
  WS02006115           JUNCTION      0.00   620.86     0  02:02           0        8.08       0.251
  WS02006116           JUNCTION      0.00   608.82     0  02:02           0        8.06       0.239
  WS02006230           JUNCTION     10.28   395.97     0  04:22        0.29        6.36       0.217
  WS02006231           JUNCTION      0.00   386.83     0  05:22           0        6.08       0.178
  WS02006232           JUNCTION      0.00   387.01     0  05:22           0         6.1       0.269
  WS02006234           JUNCTION      0.00   388.24     0  05:21           0         6.1       0.133
  WS02006235           JUNCTION      0.00   388.28     0  05:21           0        6.16       0.177
  WS02006238           JUNCTION      0.00   333.88     0  03:20           0        4.07       0.173
  WS02006240           JUNCTION      0.00   334.33     0  03:20           0        4.05       0.294
  WS02006242           JUNCTION      0.00   336.29     0  06:11           0        4.04       0.360
  WS02006243           JUNCTION      0.00   340.43     0  06:11           0        4.02      -0.138
  WS02006245           JUNCTION      0.00   342.86     0  06:10           0        4.03       0.306
  WS02006247           JUNCTION      0.00   346.08     0  04:00           0        4.04       0.183
  WS02006248           JUNCTION      0.00   351.78     0  04:00           0        4.04       0.089
  WS02006249           JUNCTION      0.00   450.04     0  02:00           0        4.28       0.270
  WS02006239           JUNCTION      0.00   334.66     0  03:20           0        4.05       0.184
  WS02006251           JUNCTION      0.08   451.69     0  02:00     0.00217        4.31       0.200
  WS02006252           JUNCTION      0.00   399.96     0  04:20           0        3.95       0.011
  WS02006253           JUNCTION      1.44    57.92     0  02:08     0.00747        0.36       1.125
  WS02006256           JUNCTION      0.00   600.00     0  04:30           0        5.52       0.054
  WS02004138           JUNCTION      0.00   380.00     0  07:10           0         5.3       0.072
  WS02004407           JUNCTION      0.00   604.20     0  02:03           0        7.91       0.093
  WS02006228           JUNCTION      0.00   592.96     0  02:00           0        8.08       0.186
  WS02006229           JUNCTION      0.00   592.89     0  02:01           0         8.1       0.163
  WS02006280           JUNCTION      0.00   274.19     0  02:09           0        1.75       0.004
  WS02006284           JUNCTION      0.10   274.19     0  02:09      0.0027        1.75       0.059
  WS02006287           JUNCTION      0.00   274.08     0  02:09           0        1.75       0.041
  WSF200               JUNCTION      0.00   602.20     0  02:05           0        7.79       0.053
  HS02004901           JUNCTION     12.34    12.34     0  01:36      0.0695      0.0697       2.590
  HS02004881           JUNCTION      5.34    56.62     0  02:08      0.0303       0.326       0.064
  HS02004876           JUNCTION     10.11    51.23     0  02:08      0.0584       0.296       0.183
  HS02004870           JUNCTION     10.08    41.18     0  02:08      0.0575       0.238       0.045
  HS02004862           JUNCTION      9.99    31.21     0  02:08      0.0634        0.18       0.096
  HS02004856           JUNCTION      7.58    21.25     0  02:08      0.0432       0.118       1.231
  HS02004852           JUNCTION      0.00    13.78     0  02:09           0      0.0753       0.072
  HS02004848           JUNCTION     22.44    22.44     0  02:09       0.139       0.139       0.032
  HS02004842           JUNCTION      0.00     8.71     0  02:17           0      0.0763      20.533
  HS02004837           JUNCTION     23.78    32.32     0  02:08       0.279       0.343       0.237
  HS02004830           JUNCTION      0.15    32.46     0  02:09     0.00423       0.333       0.372
  HS02004824           JUNCTION     27.40    59.85     0  02:10       0.181       0.513       0.105
  HS02004817           JUNCTION      0.60    60.44     0  02:10      0.0169       0.529       3.252
  HS02004807           JUNCTION     18.56    78.63     0  02:09       0.106       0.618       0.704
  HS02004802           JUNCTION      0.00    78.69     0  02:10           0       0.615       0.647
  HS02004799           JUNCTION     14.98   164.66     0  02:07      0.0856       0.976       0.270
  HS02004792           JUNCTION     62.86   149.73     0  02:07       0.364       0.891       0.045
  HS02004788           JUNCTION     22.43    86.95     0  02:07       0.166       0.528       0.074
  HS02004785           JUNCTION      0.15    64.59     0  02:07     0.00423       0.363       0.135
  HS02004777           JUNCTION      0.03    64.48     0  02:07    0.000846       0.364       1.448
  HS02004770           JUNCTION     52.29    64.51     0  02:06       0.297       0.365       0.854
  HS02004480           JUNCTION      0.00   195.78     0  02:07           0        1.15       0.098
  HS02004479           JUNCTION      0.00    31.20     0  02:09           0       0.188       0.391
  HS02004478           JUNCTION      0.00   274.07     0  02:08           0        1.75       0.020
  YS02001745           JUNCTION    214.32   392.24     0  02:25        2.14        2.16       0.516
  YS02001748           JUNCTION      0.04   562.73     0  02:25     0.00127        2.15       0.982
  YS02001751           JUNCTION      0.01   322.11     0  02:15     0.00031        2.11       1.129
  YS02001754           JUNCTION      0.26   230.55     0  02:27     0.00733         2.1       1.192
  YS02001762           JUNCTION      0.00   274.11     0  02:26           0        1.83       1.158
  YS02001765           JUNCTION      0.00   268.71     0  02:26           0        1.84       1.325
  YS02001767           JUNCTION      0.54   264.41     0  02:26      0.0151        1.86       1.979
  YS02001770           JUNCTION    259.81   389.80     0  03:06        2.41        2.54       1.265
  YS02001774           JUNCTION      0.00   390.35     0  03:06           0       0.805       3.187
  YS02001779           JUNCTION      0.01   390.44     0  03:06    0.000141       0.772       2.025
  YS02001882           JUNCTION      0.00    12.98     0  02:14           0      0.0168      14.112
  YS02001884           JUNCTION      0.00    27.95     0  02:14           0      0.0533      12.199
  YS02001759           JUNCTION    246.73   512.82     0  02:26        2.23         3.9       0.585
  YS02001887           JUNCTION    301.84   302.84     0  02:42        2.57         2.6       0.314
  YS02001890           JUNCTION      0.00   302.99     0  02:42           0        2.56       0.345
  YS02001898           JUNCTION      0.00   303.50     0  02:43           0        2.54       0.112
  YS02001901           JUNCTION      0.00   301.32     0  02:48           0        2.54       0.257
  YS02001904           JUNCTION      0.00   302.04     0  02:52           0        2.54       0.237
  YS02001907           JUNCTION      0.00   587.37     0  03:03           0        5.62       0.423
  YS02001910           JUNCTION      0.00   321.25     0  03:06           0         3.1       0.366
  YS02001915           JUNCTION    186.98   319.97     0  03:06         1.8         3.1       0.180
  YS02001918           JUNCTION      0.00   144.54     0  03:06           0         1.3       0.134
  YS02001619           JUNCTION    183.42   183.42     0  02:55        1.79        1.79       0.671
  YS02001629           JUNCTION      0.00   182.96     0  02:10           0        1.66       1.738
  YS02001641           JUNCTION      0.00   397.37     0  02:26           0        3.68       0.572
  YS02001644           JUNCTION    204.56  1086.43     0  03:04        2.06         7.6       0.350
  YS02001652           JUNCTION      0.00   278.45     0  02:10           0        1.87       1.247
  YS02001655           JUNCTION      0.15   385.75     0  02:14     0.00434        1.89       1.315
  YS02001920           JUNCTION      2.87   134.82     0  03:06      0.0809        1.31       0.213
  YS02001923           JUNCTION      0.04   110.82     0  03:02     0.00106        1.23       0.049
  YS02001926           JUNCTION      0.05   103.86     0  03:01     0.00147        1.23       0.254
  YS02001929           JUNCTION    100.40   100.40     0  03:01        1.23        1.23       0.039
  YS02001658           JUNCTION      0.00   618.90     0  02:21           0        1.92       1.115
  YS02001661           JUNCTION      0.00   618.15     0  02:38           0        2.61      -0.070
  YS02001664           JUNCTION    219.77   378.13     0  02:37        1.91         2.6       0.261
  YS02001622           JUNCTION      0.00   184.24     0  02:53           0        1.78       1.814
  YS02001633           JUNCTION    208.70   386.36     0  02:26        2.13        3.74       0.858
  YS02001649           JUNCTION      0.00   775.10     0  02:29           0        4.91       0.752
  YS02001757           JUNCTION      0.00  1444.04     0  02:34           0        8.86       1.051
  YS02001895           JUNCTION      0.00   303.07     0  02:42           0        2.55       0.188
  YS02001625           JUNCTION      0.00   183.73     0  02:54           0        1.74       2.273
  YS02163301           JUNCTION      0.00   203.45     0  02:24           0        1.64       1.477
  YS02163601           JUNCTION      0.11   388.70     0  02:26      0.0031         3.7       0.816
  YS02164001           JUNCTION      0.00   391.23     0  02:26           0        3.68       0.543
  YS02001647           JUNCTION      0.00   582.09     0  02:26           0        3.97       0.717
  YSB1154              JUNCTION     18.00    18.00     0  02:07       0.104       0.105       1.400
  YSB6556              JUNCTION      0.00    17.99     0  02:06           0       0.105       1.199
  YSB1174              JUNCTION     13.79    13.79     0  01:35      0.0753      0.0758       1.721
  YSB1171              JUNCTION      0.00    31.24     0  02:07           0       0.187       3.509
  YS02006553           JUNCTION      0.00   587.59     0  03:03           0        5.62       0.271
  YS02006561           JUNCTION      0.00   842.77     0  02:57           0        7.92       0.007
  YS02006556           JUNCTION      0.00   587.33     0  03:03           0        5.62       0.203
  YS02006558           JUNCTION    265.84   843.19     0  02:57        2.36        7.95       0.063
  YS02001783           JUNCTION      0.00   840.98     0  02:58           0        7.92       0.026
  YS02001784           JUNCTION      1.06   842.48     0  02:54      0.0299        7.95       0.045
  YS02001786           JUNCTION      0.06   842.23     0  02:57     0.00159        7.95       0.040
  YS02001788           JUNCTION      0.07   842.19     0  02:57       0.002        7.94       0.024
  YS02001790           JUNCTION      0.15   842.33     0  02:57     0.00437        7.95       0.027
  YS02001791           JUNCTION      0.00   842.28     0  02:57           0        7.94       0.014
  YS02001793           JUNCTION      0.00   842.49     0  02:57           0        7.94      -0.014
  WS02004139           JUNCTION      0.32   380.32     0  07:12     0.00905        5.31       0.601
  WSC                  OUTFALL       0.00   719.94     0  02:09           0        13.6       0.000
  3                    OUTFALL       0.00   496.71     0  04:30           0        3.38       0.000
  4                    OUTFALL       0.00   184.12     0  02:00           0        0.22       0.000
  5                    OUTFALL       0.00     0.00     0  00:00           0           0       0.000 ltr
  JK-storage           STORAGE       0.00   889.63     0  02:09           0        8.09      -3.403
  CC-storage           STORAGE       0.00  1444.55     0  02:34           0        7.76       0.792
  XR-storage           STORAGE     549.18   549.18     0  02:55        9.26        9.86      -0.002
  
  
  **********************
  Node Surcharge Summary
  **********************
  
  Surcharging occurs when water rises above the top of the highest conduit.
  ---------------------------------------------------------------------
                                               Max. Height   Min. Depth
                                   Hours       Above Crown    Below Rim
  Node                 Type      Surcharged         Meters       Meters
  ---------------------------------------------------------------------
  WS02004404           JUNCTION        0.16          0.016        2.764
  WS02006109           JUNCTION        1.74          0.212        1.608
  WS02006110           JUNCTION        0.41          0.052        1.798
  WS02006112           JUNCTION        0.51          0.192        1.488
  WS02006230           JUNCTION        0.10          0.010        1.560
  WS02006231           JUNCTION        0.23          0.047        1.483
  WS02006232           JUNCTION        1.65          0.181        1.299
  WS02006234           JUNCTION        0.28          0.091        1.149
  WS02006235           JUNCTION        0.64          0.127        1.163
  WS02006238           JUNCTION        1.01          0.144        1.286
  WS02006240           JUNCTION        0.21          0.068        1.322
  WS02006242           JUNCTION        0.52          0.110        0.710
  WS02006243           JUNCTION        0.08          0.017        0.753
  WS02006239           JUNCTION        0.26          0.091        1.199
  WS02006252           JUNCTION        1.78          0.191        0.909
  WS02006228           JUNCTION        1.62          0.262        1.938
  YS02001748           JUNCTION        5.30          0.416        0.774
  YS02001751           JUNCTION        5.51          0.679        0.521
  YS02001754           JUNCTION        5.71          0.771        0.379
  YS02001762           JUNCTION        5.96          1.032        0.118
  YS02001765           JUNCTION        5.94          0.977        0.123
  YS02001767           JUNCTION        5.92          0.931        0.099
  YS02001770           JUNCTION        5.84          0.883        0.037
  YS02001774           JUNCTION        5.95          0.975        0.075
  YS02001779           JUNCTION        5.69          0.680        0.000
  YS02001882           JUNCTION        0.48          0.183        0.647
  YS02001884           JUNCTION        0.56          0.224        0.646
  YS02001759           JUNCTION        5.98          1.069        0.141
  YS02001887           JUNCTION        0.72          0.316        0.634
  YS02001890           JUNCTION        0.77          0.342        0.418
  YS02001898           JUNCTION        0.37          0.117        0.623
  YS02001901           JUNCTION        0.65          0.275        0.595
  YS02001904           JUNCTION        0.61          0.244        0.606
  YS02001907           JUNCTION        1.44          0.576        0.374
  YS02001910           JUNCTION        0.83          0.374        0.726
  YS02001915           JUNCTION        0.45          0.160        0.840
  YS02001619           JUNCTION        5.50          0.610        0.000
  YS02001629           JUNCTION        5.52          0.470        0.000
  YS02001641           JUNCTION        5.94          0.934        0.166
  YS02001644           JUNCTION        5.95          0.920        0.000
  YS02001652           JUNCTION        5.73          1.095        0.035
  YS02001655           JUNCTION        5.54          1.159        0.041
  YS02001658           JUNCTION        5.34          1.300        0.000
  YS02001661           JUNCTION        0.23          1.147        0.243
  YS02001622           JUNCTION        5.57          0.620        0.000
  YS02001633           JUNCTION        5.93          0.926        0.134
  YS02001649           JUNCTION        5.96          1.050        0.000
  YS02001757           JUNCTION        6.04          1.176        0.034
  YS02001895           JUNCTION        0.41          0.141        0.609
  YS02001625           JUNCTION        5.74          0.780        0.000
  YS02163301           JUNCTION        5.91          0.886        0.144
  YS02163601           JUNCTION        5.96          0.991        0.089
  YS02164001           JUNCTION        5.94          0.923        0.177
  YS02001647           JUNCTION        5.73          0.808        0.092
  YS02006553           JUNCTION        1.50          0.580        0.610
  YS02006556           JUNCTION        1.14          0.493        0.857
  YS02006558           JUNCTION        1.08          0.472        0.928
  YS02001783           JUNCTION        1.29          0.571        1.029
  YS02001784           JUNCTION        1.36          0.552        0.938
  YS02001786           JUNCTION        1.30          0.475        0.955
  YS02001788           JUNCTION        1.29          0.450        1.030
  YS02001790           JUNCTION        2.25          1.157        0.000
  YS02001791           JUNCTION        2.29          1.217        0.703
  YS02001793           JUNCTION        2.35          2.053        0.547
  
  
  *********************
  Node Flooding Summary
  *********************
  
  Flooding refers to all water that overflows a node, whether it ponds or not.
  --------------------------------------------------------------------------
                                                             Total   Maximum
                                 Maximum   Time of Max       Flood    Ponded
                        Hours       Rate    Occurrence      Volume     Depth
  Node                 Flooded       LPS   days hr:min    10^6 ltr    Meters
  --------------------------------------------------------------------------
  YS02001779              2.24    390.43      0  03:06       0.749     0.000
  YS02001619              0.01     20.31      0  02:22       0.000     0.000
  YS02001629              0.01     27.29      0  02:23       0.000     0.000
  YS02001644              4.11   1086.35      0  03:04       5.477     0.000
  YS02001658              0.01    249.24      0  02:21       0.000     0.000
  YS02001622              0.01     34.34      0  02:22       0.000     0.000
  YS02001649              0.06     45.02      0  02:41       0.002     0.000
  YS02001625              0.62     36.68      0  02:54       0.049     0.000
  YS02001790              0.01    147.21      0  02:10       0.000     0.000
  JK-storage              2.00    829.92      0  02:50       2.865     0.000
  XR-storage              4.34    456.74      0  03:30       3.636     0.000
  
  
  **********************
  Storage Volume Summary
  **********************
  
  --------------------------------------------------------------------------------------------------
                         Average     Avg  Evap Exfil       Maximum     Max    Time of Max    Maximum
                          Volume    Pcnt  Pcnt  Pcnt        Volume    Pcnt     Occurrence    Outflow
  Storage Unit           1000 m3    Full  Loss  Loss       1000 m3    Full    days hr:min        LPS
  --------------------------------------------------------------------------------------------------
  JK-storage               0.137      47     0     0         0.291     100       0  02:11     600.00
  CC-storage               3.092      20     0     0         3.905      25       0  03:02     399.96
  XR-storage               0.890      96     0     0         0.926     100       0  01:53     380.00
  
  
  ***********************
  Outfall Loading Summary
  ***********************
  
  -----------------------------------------------------------
                         Flow       Avg       Max       Total
                         Freq      Flow      Flow      Volume
  Outfall Node           Pcnt       LPS       LPS    10^6 ltr
  -----------------------------------------------------------
  WSC                   99.99    527.19    719.94      13.574
  3                     80.91    204.72    496.71       3.383
  4                     27.97     37.09    184.12       0.220
  5                      0.00      0.00      0.00       0.000
  -----------------------------------------------------------
  System                52.22    769.00   1128.85      17.177
  
  
  ********************
  Link Flow Summary
  ********************
  
  -----------------------------------------------------------------------------
                                 Maximum  Time of Max   Maximum    Max/    Max/
                                  |Flow|   Occurrence   |Veloc|    Full    Full
  Link                 Type          LPS  days hr:min     m/sec    Flow   Depth
  -----------------------------------------------------------------------------
  WS02003066WSF200     CONDUIT    602.20     0  02:05      2.87    0.10    0.24
  WS02006287WS02006284 CONDUIT    274.09     0  02:09      1.78    0.13    0.25
  WS02006284WS02006280 CONDUIT    274.19     0  02:09      2.02    0.11    0.23
  WS02006280WS02006229 CONDUIT    274.19     0  02:09      3.26    0.06    0.16
  WS02006229WS02006228 CONDUIT    592.96     0  02:00      1.18    1.96    1.00
  WS02006256WS02006235 CONDUIT    166.25     0  00:01      2.58    1.76    1.00
  WS02006253WS02006251 CONDUIT     75.32     0  02:09      0.53    0.23    0.98
  WS02006252WS02006251 CONDUIT    400.08     0  04:20      3.18    1.47    1.00
  WS02006251WS02006249 CONDUIT    450.04     0  02:00      1.20    1.30    0.94
  WS02006249WS02006248 CONDUIT    351.78     0  04:00      1.15    1.93    0.89
  WS02006248WS02006247 CONDUIT    346.08     0  04:00      1.11    0.75    0.95
  WS02006247WS02006245 CONDUIT    342.86     0  06:10      1.07    2.72    0.99
  WS02006245WS02006243 CONDUIT    340.43     0  06:11      1.10    1.01    1.00
  WS02006243WS02006242 CONDUIT    336.29     0  06:11      0.98    0.72    1.00
  WS02006242WS02006240 CONDUIT    334.33     0  03:20      0.94    1.33    1.00
  WS02006240WS02006239 CONDUIT    334.66     0  03:20      0.98    1.05    1.00
  WS02006239WS02006238 CONDUIT    333.88     0  03:20      0.91    1.07    1.00
  WS02006238WS02006235 CONDUIT    333.21     0  03:20      1.25    0.74    1.00
  WS02006235WS02006234 CONDUIT    388.24     0  05:21      1.04    4.10    1.00
  WS02006234WS02006232 CONDUIT    387.01     0  05:22      1.13    0.78    1.00
  WS02006232WS02006231 CONDUIT    386.83     0  05:22      1.06    0.81    1.00
  WS02006231WS02006230 CONDUIT    385.69     0  04:22      1.34    5.85    1.00
  WS02006230WS02006229 CONDUIT    395.75     0  04:23      1.03    8.81    1.00
  WS02006228WS02006109 CONDUIT    592.95     0  02:00      1.18    2.59    1.00
  WS02006116WS02004401 CONDUIT    606.02     0  02:02      0.81    0.84    0.90
  WS02006115WS02006116 CONDUIT    608.82     0  02:02      0.88    0.78    0.82
  WS02006113WS02006111 CONDUIT    622.14     0  02:01      2.55    0.75    0.49
  WS02006112WS02006115 CONDUIT    620.86     0  02:02      0.83    0.37    0.90
  WS02006111WS02006112 CONDUIT    602.88     0  02:01      1.65    0.29    0.68
  WS02006110WS02006113 CONDUIT    594.80     0  02:02      1.38    0.54    0.80
  WS02006109WS02006110 CONDUIT    594.18     0  02:00      1.18    1.14    1.00
  WS02004411WS02004412 CONDUIT    602.36     0  02:04      0.98    0.86    0.73
  WS02004401WS02004402 CONDUIT    605.55     0  02:03      0.80    0.73    0.92
  WS02004413WS02003067 CONDUIT    601.97     0  02:05      1.18    0.26    0.62
  WS02004412WS02004413 CONDUIT    602.14     0  02:04      0.88    0.40    0.81
  WS02004410WS02004411 CONDUIT    602.72     0  02:04      0.99    0.82    0.73
  WS02004409WS02004410 CONDUIT    603.19     0  02:03      1.00    0.78    0.72
  WS02004407WS02004409 CONDUIT    603.96     0  02:03      1.49    0.21    0.51
  WS02004406WS02004407 CONDUIT    604.20     0  02:03      1.11    0.27    0.65
  WS02004405WS02004406 CONDUIT    604.89     0  02:03      0.77    1.19    1.00
  WS02004404WS02004405 CONDUIT    608.51     0  02:04      0.84    5.96    1.00
  WS02004403WS02004404 CONDUIT    606.37     0  02:04      0.78    0.44    0.97
  WS02004402WS02004403 CONDUIT    604.87     0  02:03      0.79    0.87    0.94
  WS02004139WS02001211 CONDUIT    380.11     0  07:20      0.69    0.48    0.57
  WS02004138WS02004139 CONDUIT    380.00     0  07:12      2.94    0.08    0.43
  WS02003067WS02003066 CONDUIT    602.13     0  02:05      1.29    0.19    0.43
  WS02001213WS02003059 CONDUIT    386.85     0  07:20      0.67    0.64    0.70
  WS02001212WS02001213 CONDUIT    387.05     0  07:20      1.30    0.60    0.41
  WS02001211WS02001212 CONDUIT    387.20     0  07:20      0.77    0.30    0.61
  WS02003072WS02003073 CONDUIT    718.17     0  02:08      1.57    1.55    0.42
  WS02003069WS02003072 CONDUIT    718.29     0  02:08      1.49    0.35    0.44
  WS02003060WS02003069 CONDUIT    718.32     0  02:07      1.75    0.28    0.39
  WS02003059WS02003060 CONDUIT    386.63     0  07:21      0.92    0.25    0.58
  HS02004901HS02004770 CONDUIT     12.22     0  02:07      0.05    0.05    0.35
  HS02004876HS02004881 CONDUIT     51.32     0  02:08      0.76    0.55    0.10
  HS02004870HS02004876 CONDUIT     41.17     0  02:09      0.52    0.03    0.11
  HS02004842HS02004848 CONDUIT      8.71     0  02:17      0.04    0.01    0.29
  HS02004837HS02004842 CONDUIT      8.85     0  02:14      0.41    0.01    0.30
  HS02004830HS02004837 CONDUIT     32.31     0  02:09      0.50    0.03    0.09
  HS02004824HS02004830 CONDUIT     32.45     0  02:09      0.53    0.04    0.09
  HS02004817HS02004824 CONDUIT     59.84     0  02:10      0.20    0.03    0.43
  HS02004770HS02004777 CONDUIT     64.45     0  02:07      0.26    0.12    0.36
  HS02004799HS02004480 CONDUIT    164.63     0  02:07      0.67    0.21    0.35
  HS02004792HS02004799 CONDUIT    149.69     0  02:07      0.76    0.09    0.28
  HS02004788HS02004792 CONDUIT     86.94     0  02:08      0.90    0.06    0.14
  HS02004785HS02004788 CONDUIT     64.57     0  02:08      0.57    0.49    0.16
  HS02004777HS02004785 CONDUIT     64.44     0  02:07      0.31    0.08    0.29
  HS02004480HS02004478 CONDUIT    195.75     0  02:08      1.06    0.82    0.26
  HS02004479HS02004480 CONDUIT     31.31     0  02:10      0.28    0.03    0.34
  HS02004862HS02004870 CONDUIT     31.19     0  02:09      0.56    0.03    0.08
  HS02004848HS02004852 CONDUIT     13.78     0  02:09      0.38    0.02    0.05
  HS02004856HS02004862 CONDUIT     21.24     0  02:09      0.41    0.02    0.07
  HS02004852HS02004856 CONDUIT     13.76     0  02:09      0.18    0.02    0.11
  HS02004802HS02004478 CONDUIT     78.88     0  02:11      0.38    0.07    0.29
  HS02004478WS02006287 CONDUIT    274.08     0  02:09      1.48    0.08    0.21
  HS02004817HS02004807 CONDUIT     60.62     0  02:11      0.15    0.04    0.56
  HS02004807HS02004802 CONDUIT     78.69     0  02:10      0.32    0.15    0.35
  YS02001759YS02001757 CONDUIT    516.70     0  02:26      0.66    0.37    1.00
  YS02001762YS02001759 CONDUIT    279.35     0  02:26      0.36    0.32    1.00
  YS02001765YS02001762 CONDUIT    274.11     0  02:26      0.35    0.26    1.00
  YS02001770YS02001767 CONDUIT    263.88     0  02:26      0.38    1.05    1.00
  YS02001774YS02001770 CONDUIT    390.35     0  03:06      0.50    0.25    1.00
  YS02001779YS02001774 CONDUIT    390.43     0  03:06      0.50    0.20    1.00
  YS02001649YS02001757 CONDUIT    775.08     0  02:34      0.99    0.47    1.00
  YS02001767YS02001765 CONDUIT    268.71     0  02:26      0.35    0.34    1.00
  YS02006561YS02001783 CONDUIT    840.98     0  02:58      2.10    0.44    1.00
  YS02001783YS02001784 CONDUIT    841.42     0  02:54      1.67    1.16    1.00
  YS02001784YS02001785 CONDUIT    842.17     0  02:57      1.71    1.96    1.00
  YS02001788YS02001790 CONDUIT    842.18     0  02:57      2.24    0.62    1.00
  YS02001790YS02001791 CONDUIT    842.28     0  02:57      2.67    0.92    1.00
  YS02001791YS02001793 CONDUIT    842.49     0  02:57      5.40    0.36    1.00
  YS02001910YS02001907 CONDUIT    321.22     0  03:06      0.49    0.18    1.00
  YS02001786YS02001788 CONDUIT    842.12     0  02:57      2.16    1.62    1.00
  YS02001915YS02001910 CONDUIT    321.25     0  03:06      0.56    0.16    1.00
  YS02001918YS02001915 CONDUIT    149.33     0  03:06      0.44    0.08    0.91
  YS02001923YS02001920 CONDUIT    131.95     0  03:06      0.66    0.06    0.74
  YS02001926YS02001923 CONDUIT    110.78     0  03:02      0.76    0.16    0.42
  YS02001929YS02001926 CONDUIT    103.81     0  03:01      0.81    0.05    0.30
  YS02001920YS02001918 CONDUIT    144.54     0  03:06      0.65    0.14    0.84
  YS02001629YS02163301 CONDUIT    203.45     0  02:24      0.26    0.25    1.00
  YS02001619YS02001622 CONDUIT    184.24     0  02:53      0.67    0.27    1.00
  YS02001622YS02001625 CONDUIT    183.73     0  02:54      0.32    0.10    1.00
  YS02001625YS02001629 CONDUIT    182.96     0  02:10      0.27    0.09    1.00
  YS02163301YS02001633 CONDUIT    204.69     0  02:26      0.26    0.19    1.00
  YS02163601YS02164001 CONDUIT    391.23     0  02:26      0.50    0.35    1.00
  YS02164001YS02001641 CONDUIT    397.37     0  02:26      0.51    0.54    1.00
  YS02001641YS02001644 CONDUIT    401.12     0  02:26      0.51    1.30    1.00
  YS02001647YS02001649 CONDUIT    583.80     0  02:26      0.74    0.31    1.00
  YS02006553YS02006556 CONDUIT    587.33     0  03:03      0.75    0.50    1.00
  YS02006556YS02006558 CONDUIT    587.58     0  03:03      0.75    0.46    1.00
  YSB6556YSB1171       CONDUIT     18.03     0  02:09      0.07    0.02    0.61
  YS02001907YS02006553 CONDUIT    587.59     0  03:03      0.65    0.69    1.00
  YS02006558YS02006561 CONDUIT    842.77     0  02:57      3.14    1.86    1.00
  YS02001633YS02163601 CONDUIT    388.59     0  02:26      0.49    0.41    1.00
  YS02001644YS02001647 CONDUIT    582.09     0  02:26      0.74    0.34    1.00
  YS02001745YS02001748 CONDUIT    562.68     0  02:25      1.53    0.22    0.94
  YS02001748YS02001751 CONDUIT    322.10     0  02:15      1.14    0.16    1.00
  YS02001751YS02001754 CONDUIT    230.29     0  02:27      0.97    0.11    1.00
  YS02001754YS02001757 CONDUIT    229.96     0  02:27      0.33    0.09    1.00
  YS02001882YS02001884 CONDUIT     15.24     0  02:14      0.12    0.02    1.00
  YS02001884YS02001887 CONDUIT     27.95     0  02:14      0.09    0.04    1.00
  YS02001890YS02001895 CONDUIT    303.07     0  02:42      0.46    0.14    1.00
  YS02001895YS02001898 CONDUIT    303.50     0  02:43      0.57    0.53    1.00
  YS02001898YS02001901 CONDUIT    301.32     0  02:48      0.49    0.19    1.00
  YS02001901YS02001904 CONDUIT    302.04     0  02:52      0.44    0.47    1.00
  YS02001904YS02001907 CONDUIT    302.30     0  02:48      0.38    0.11    1.00
  YS02001887YS02001890 CONDUIT    302.99     0  02:42      0.41    0.52    1.00
  YS02001652YS02001649 CONDUIT    282.07     0  02:10      0.58    0.14    1.00
  YS02001655YS02001652 CONDUIT    278.45     0  02:10      1.05    0.14    1.00
  YS02001658YS02001655 CONDUIT    385.60     0  02:14      1.31    0.16    1.00
  YS02001661YS02001658 CONDUIT    618.90     0  02:21      1.61    0.24    1.00
  YS02001664YS02001661 CONDUIT    618.15     0  02:38      1.56    0.19    0.73
  YSB1154YSB6556       CONDUIT     17.99     0  02:06      0.16    0.03    0.50
  YSB1174YSB1171       CONDUIT     13.75     0  01:36      0.06    0.02    0.62
  YSB1171HS02004479    CONDUIT     31.20     0  02:09      0.54    0.02    0.48
  HS02004881HS02006253 CONDUIT     56.62     0  02:08      1.92    0.01    0.28
  YS02001793JiankangQianchi CONDUIT    889.63     0  02:09     13.02    0.07    1.00
  YS02001757CaochengTiaoxuchi CONDUIT   1444.55     0  02:34      2.38    0.63    1.00
  WSF200WS02003060     CONDUIT    602.47     0  02:05      1.96    0.13    0.32
  1                    CONDUIT    719.94     0  02:09      3.04    0.25    0.34
  2                    CONDUIT    184.12     0  02:00      5.72    0.44    0.47
  3                    CONDUIT    496.71     0  04:30      9.78    0.79    0.68
  4                    CONDUIT      0.00     0  00:00      0.00    0.00    0.00
  CC-Pump-1            PUMP       200.00     0  03:20              1.00
  CC-Pump-2            PUMP       200.00     0  01:50              1.00
  JK-Pump-1            PUMP       300.00     0  03:00              1.00
  JK-Pump-2            PUMP       300.00     0  00:00              1.00
  XR-Pump-1            PUMP        95.00     0  00:30              1.00
  XR-Pump-2            PUMP        95.00     0  00:00              1.00
  XR-Pump-3            PUMP        95.00     0  00:00              1.00
  XR-Pump-4            PUMP        95.00     0  00:30              1.00
  
  
  ***************************
  Flow Classification Summary
  ***************************
  
  -------------------------------------------------------------------------------------
                      Adjusted    ---------- Fraction of Time in Flow Class ---------- 
                       /Actual         Up    Down  Sub   Sup   Up    Down  Norm  Inlet 
  Conduit               Length    Dry  Dry   Dry   Crit  Crit  Crit  Crit  Ltd   Ctrl  
  -------------------------------------------------------------------------------------
  WS02003066WSF200        1.00   0.05  0.01  0.00  0.00  0.94  0.00  0.00  0.71  0.00
  WS02006287WS02006284    1.00   0.04  0.01  0.00  0.62  0.33  0.00  0.00  0.68  0.00
  WS02006284WS02006280    1.00   0.04  0.00  0.00  0.00  0.00  0.00  0.96  0.00  0.00
  WS02006280WS02006229    1.00   0.04  0.00  0.00  0.00  0.00  0.00  0.96  0.00  0.00
  WS02006229WS02006228    1.00   0.00  0.00  0.00  0.99  0.00  0.00  0.01  0.00  0.00
  WS02006256WS02006235    1.00   0.00  0.00  0.00  1.00  0.00  0.00  0.00  0.00  0.00
  WS02006253WS02006251    1.00   0.03  0.01  0.00  0.96  0.00  0.00  0.00  0.00  0.00
  WS02006252WS02006251    1.00   0.06  0.00  0.00  0.00  0.00  0.94  0.00  0.00  0.00
  WS02006251WS02006249    1.00   0.00  0.00  0.00  1.00  0.00  0.00  0.00  0.24  0.00
  WS02006249WS02006248    1.00   0.00  0.02  0.00  0.87  0.00  0.11  0.00  0.00  0.00
  WS02006248WS02006247    1.00   0.02  0.00  0.00  0.97  0.00  0.00  0.00  0.18  0.00
  WS02006247WS02006245    1.00   0.02  0.00  0.00  0.97  0.00  0.00  0.01  0.00  0.00
  WS02006245WS02006243    1.00   0.01  0.00  0.00  0.95  0.00  0.00  0.03  0.03  0.00
  WS02006243WS02006242    1.00   0.01  0.00  0.00  0.99  0.00  0.00  0.00  0.19  0.00
  WS02006242WS02006240    1.00   0.00  0.00  0.00  0.99  0.00  0.00  0.00  0.00  0.00
  WS02006240WS02006239    1.00   0.00  0.00  0.00  0.97  0.00  0.00  0.03  0.01  0.00
  WS02006239WS02006238    1.00   0.00  0.00  0.00  1.00  0.00  0.00  0.00  0.00  0.00
  WS02006238WS02006235    1.00   0.00  0.00  0.00  1.00  0.00  0.00  0.00  0.00  0.00
  WS02006235WS02006234    1.00   0.00  0.00  0.00  0.97  0.00  0.03  0.00  0.00  0.00
  WS02006234WS02006232    1.00   0.00  0.00  0.00  1.00  0.00  0.00  0.00  0.07  0.00
  WS02006232WS02006231    1.00   0.00  0.00  0.00  0.99  0.00  0.00  0.00  0.00  0.00
  WS02006231WS02006230    1.00   0.00  0.00  0.00  0.69  0.00  0.30  0.00  0.00  0.00
  WS02006230WS02006229    1.00   0.00  0.00  0.00  0.99  0.00  0.00  0.01  0.01  0.00
  WS02006228WS02006109    1.00   0.00  0.00  0.00  1.00  0.00  0.00  0.00  0.00  0.00
  WS02006116WS02004401    1.00   0.02  0.00  0.00  0.98  0.00  0.00  0.00  0.00  0.00
  WS02006115WS02006116    1.00   0.02  0.00  0.00  0.97  0.00  0.00  0.01  0.00  0.00
  WS02006113WS02006111    1.00   0.02  0.00  0.00  0.00  0.98  0.00  0.00  0.14  0.00
  WS02006112WS02006115    1.00   0.02  0.00  0.00  0.97  0.00  0.00  0.00  0.00  0.00
  WS02006111WS02006112    1.00   0.02  0.00  0.00  0.98  0.00  0.00  0.00  0.97  0.00
  WS02006110WS02006113    1.00   0.01  0.01  0.00  0.98  0.00  0.00  0.00  0.00  0.00
  WS02006109WS02006110    1.00   0.00  0.01  0.00  0.98  0.00  0.01  0.00  0.00  0.00
  WS02004411WS02004412    1.00   0.04  0.00  0.00  0.96  0.00  0.00  0.00  0.00  0.00
  WS02004401WS02004402    1.00   0.03  0.00  0.00  0.97  0.00  0.00  0.00  0.00  0.00
  WS02004413WS02003067    1.00   0.04  0.02  0.00  0.00  0.00  0.95  0.00  0.00  0.00
  WS02004412WS02004413    1.00   0.04  0.00  0.00  0.96  0.00  0.00  0.00  0.03  0.00
  WS02004410WS02004411    1.00   0.04  0.00  0.00  0.96  0.00  0.00  0.00  0.03  0.00
  WS02004409WS02004410    1.00   0.04  0.00  0.00  0.96  0.00  0.00  0.00  0.02  0.00
  WS02004407WS02004409    1.00   0.04  0.00  0.00  0.96  0.00  0.00  0.00  0.89  0.00
  WS02004406WS02004407    1.00   0.00  0.04  0.00  0.96  0.00  0.00  0.00  0.00  0.00
  WS02004405WS02004406    1.00   0.00  0.00  0.00  1.00  0.00  0.00  0.00  0.01  0.00
  WS02004404WS02004405    1.00   0.00  0.00  0.00  1.00  0.00  0.00  0.00  0.00  0.00
  WS02004403WS02004404    1.00   0.00  0.03  0.00  0.97  0.00  0.00  0.00  0.01  0.00
  WS02004402WS02004403    1.00   0.03  0.00  0.00  0.97  0.00  0.00  0.00  0.00  0.00
  WS02004139WS02001211    1.00   0.00  0.00  0.00  1.00  0.00  0.00  0.00  0.00  0.00
  WS02004138WS02004139    1.00   0.00  0.00  0.00  0.99  0.01  0.00  0.00  1.00  0.00
  WS02003067WS02003066    1.00   0.06  0.01  0.00  0.94  0.00  0.00  0.00  0.00  0.00
  WS02001213WS02003059    1.00   0.00  0.00  0.00  0.99  0.00  0.00  0.00  0.00  0.00
  WS02001212WS02001213    1.00   0.00  0.00  0.00  0.85  0.00  0.14  0.00  0.00  0.00
  WS02001211WS02001212    1.00   0.00  0.00  0.00  1.00  0.00  0.00  0.00  0.00  0.00
  WS02003072WS02003073    1.00   0.00  0.00  0.00  0.00  0.00  0.00  1.00  0.00  0.00
  WS02003069WS02003072    1.00   0.00  0.00  0.00  0.99  0.01  0.00  0.00  0.22  0.00
  WS02003060WS02003069    1.00   0.00  0.00  0.00  0.98  0.02  0.00  0.00  0.13  0.00
  WS02003059WS02003060    1.00   0.00  0.00  0.00  1.00  0.00  0.00  0.00  0.01  0.00
  HS02004901HS02004770    1.00   0.04  0.00  0.00  0.96  0.00  0.00  0.00  0.00  0.00
  HS02004876HS02004881    1.00   0.02  0.00  0.00  0.98  0.00  0.00  0.00  0.00  0.00
  HS02004870HS02004876    1.00   0.01  0.00  0.00  0.99  0.00  0.00  0.00  0.95  0.00
  HS02004842HS02004848    1.00   0.00  0.04  0.00  0.96  0.00  0.00  0.00  0.58  0.00
  HS02004837HS02004842    1.00   0.00  0.00  0.00  0.99  0.01  0.00  0.00  0.11  0.00
  HS02004830HS02004837    1.00   0.00  0.00  0.00  1.00  0.00  0.00  0.00  0.99  0.00
  HS02004824HS02004830    1.00   0.00  0.00  0.00  1.00  0.00  0.00  0.00  0.00  0.00
  HS02004817HS02004824    1.00   0.00  0.00  0.00  1.00  0.00  0.00  0.00  1.00  0.00
  HS02004770HS02004777    1.00   0.00  0.04  0.00  0.96  0.00  0.00  0.00  0.03  0.00
  HS02004799HS02004480    1.00   0.00  0.02  0.00  0.95  0.00  0.02  0.00  0.00  0.00
  HS02004792HS02004799    1.00   0.00  0.00  0.00  0.99  0.01  0.00  0.00  0.98  0.00
  HS02004788HS02004792    1.00   0.00  0.00  0.00  0.99  0.01  0.00  0.00  0.98  0.00
  HS02004785HS02004788    1.00   0.00  0.00  0.00  1.00  0.00  0.00  0.00  0.00  0.00
  HS02004777HS02004785    1.00   0.00  0.00  0.00  1.00  0.00  0.00  0.00  0.12  0.00
  HS02004480HS02004478    1.00   0.04  0.00  0.00  0.68  0.00  0.00  0.27  0.00  0.00
  HS02004479HS02004480    1.00   0.03  0.00  0.00  0.97  0.00  0.00  0.00  0.12  0.00
  HS02004862HS02004870    1.00   0.00  0.00  0.00  1.00  0.00  0.00  0.00  0.04  0.00
  HS02004848HS02004852    1.00   0.04  0.00  0.00  0.96  0.00  0.00  0.00  0.76  0.00
  HS02004856HS02004862    1.00   0.00  0.05  0.00  0.95  0.00  0.00  0.00  0.83  0.00
  HS02004852HS02004856    1.00   0.04  0.00  0.00  0.96  0.00  0.00  0.00  0.86  0.00
  HS02004802HS02004478    1.00   0.04  0.00  0.00  0.96  0.00  0.00  0.00  0.03  0.00
  HS02004478WS02006287    1.00   0.05  0.00  0.00  0.76  0.19  0.00  0.00  0.65  0.00
  HS02004817HS02004807    1.00   0.00  0.04  0.00  0.96  0.00  0.00  0.00  0.01  0.00
  HS02004807HS02004802    1.00   0.04  0.00  0.00  0.95  0.00  0.00  0.00  0.00  0.00
  YS02001759YS02001757    1.00   0.00  0.00  0.00  1.00  0.00  0.00  0.00  0.16  0.00
  YS02001762YS02001759    1.00   0.00  0.00  0.00  1.00  0.00  0.00  0.00  0.03  0.00
  YS02001765YS02001762    1.00   0.00  0.00  0.00  1.00  0.00  0.00  0.00  0.14  0.00
  YS02001770YS02001767    1.00   0.00  0.00  0.00  1.00  0.00  0.00  0.00  0.00  0.00
  YS02001774YS02001770    1.00   0.00  0.04  0.00  0.96  0.00  0.00  0.00  0.03  0.00
  YS02001779YS02001774    1.00   0.00  0.00  0.00  1.00  0.00  0.00  0.00  0.18  0.00
  YS02001649YS02001757    1.00   0.00  0.00  0.00  1.00  0.00  0.00  0.00  0.16  0.00
  YS02001767YS02001765    1.00   0.00  0.00  0.00  1.00  0.00  0.00  0.00  0.00  0.00
  YS02006561YS02001783    1.00   0.05  0.00  0.00  0.34  0.61  0.00  0.00  0.58  0.00
  YS02001783YS02001784    1.00   0.00  0.05  0.00  0.95  0.00  0.00  0.00  0.00  0.00
  YS02001784YS02001785    1.00   0.00  0.00  0.00  1.00  0.00  0.00  0.00  0.17  0.00
  YS02001788YS02001790    1.00   0.00  0.00  0.00  0.40  0.60  0.00  0.00  0.51  0.00
  YS02001790YS02001791    1.00   0.00  0.00  0.00  0.37  0.63  0.00  0.00  0.49  0.00
  YS02001791YS02001793    1.00   0.00  0.00  0.00  0.36  0.64  0.00  0.00  0.01  0.00
  YS02001910YS02001907    1.00   0.00  0.00  0.00  0.97  0.00  0.00  0.02  0.12  0.00
  YS02001786YS02001788    1.00   0.00  0.00  0.00  0.40  0.60  0.00  0.00  0.00  0.00
  YS02001915YS02001910    1.00   0.00  0.00  0.00  0.99  0.01  0.00  0.00  0.16  0.00
  YS02001918YS02001915    1.00   0.00  0.01  0.00  0.98  0.01  0.00  0.00  0.59  0.00
  YS02001923YS02001920    1.00   0.00  0.00  0.00  1.00  0.00  0.00  0.00  0.86  0.00
  YS02001926YS02001923    1.00   0.00  0.03  0.00  0.08  0.00  0.89  0.00  0.00  0.00
  YS02001929YS02001926    1.00   0.00  0.04  0.00  0.96  0.00  0.00  0.00  0.85  0.00
  YS02001920YS02001918    1.00   0.00  0.01  0.00  0.99  0.00  0.00  0.00  0.00  0.00
  YS02001629YS02163301    1.00   0.05  0.00  0.00  0.95  0.00  0.00  0.00  0.00  0.00
  YS02001619YS02001622    1.00   0.04  0.00  0.00  0.96  0.00  0.00  0.00  0.00  0.00
  YS02001622YS02001625    1.00   0.04  0.00  0.00  0.96  0.00  0.00  0.00  0.04  0.00
  YS02001625YS02001629    1.00   0.04  0.01  0.00  0.94  0.00  0.01  0.00  0.00  0.00
  YS02163301YS02001633    1.00   0.00  0.05  0.00  0.95  0.00  0.00  0.00  0.00  0.00
  YS02163601YS02164001    1.00   0.00  0.03  0.00  0.97  0.00  0.00  0.00  0.00  0.00
  YS02164001YS02001641    1.00   0.01  0.03  0.00  0.97  0.00  0.00  0.00  0.06  0.00
  YS02001641YS02001644    1.00   0.00  0.01  0.00  0.99  0.00  0.00  0.00  0.00  0.00
  YS02001647YS02001649    1.00   0.00  0.05  0.00  0.95  0.00  0.00  0.00  0.01  0.00
  YS02006553YS02006556    1.00   0.01  0.00  0.00  0.99  0.00  0.00  0.00  0.03  0.00
  YS02006556YS02006558    1.00   0.00  0.00  0.00  1.00  0.00  0.00  0.00  0.00  0.00
  YSB6556YSB1171          1.00   0.03  0.01  0.00  0.96  0.00  0.00  0.00  0.00  0.00
  YS02001907YS02006553    1.00   0.00  0.02  0.00  0.98  0.00  0.00  0.00  0.00  0.00
  YS02006558YS02006561    1.00   0.05  0.00  0.00  0.12  0.83  0.00  0.00  0.51  0.00
  YS02001633YS02163601    1.00   0.00  0.01  0.00  0.99  0.00  0.00  0.00  0.15  0.00
  YS02001644YS02001647    1.00   0.00  0.05  0.00  0.95  0.00  0.00  0.00  0.00  0.00
  YS02001745YS02001748    1.00   0.00  0.00  0.00  0.90  0.01  0.00  0.09  0.05  0.00
  YS02001748YS02001751    1.00   0.00  0.00  0.00  0.98  0.02  0.00  0.00  0.14  0.00
  YS02001751YS02001754    1.00   0.00  0.00  0.00  0.94  0.00  0.00  0.06  0.02  0.00
  YS02001754YS02001757    1.00   0.00  0.00  0.00  0.99  0.01  0.00  0.00  0.18  0.00
  YS02001882YS02001884    1.00   0.05  0.00  0.00  0.95  0.00  0.00  0.00  0.00  0.00
  YS02001884YS02001887    1.00   0.03  0.01  0.00  0.96  0.00  0.00  0.00  0.00  0.00
  YS02001890YS02001895    1.00   0.00  0.05  0.00  0.95  0.00  0.00  0.00  0.00  0.00
  YS02001895YS02001898    1.00   0.05  0.00  0.00  0.95  0.00  0.01  0.00  0.00  0.00
  YS02001898YS02001901    1.00   0.05  0.00  0.00  0.95  0.00  0.00  0.00  0.01  0.00
  YS02001901YS02001904    1.00   0.05  0.00  0.00  0.95  0.00  0.00  0.00  0.00  0.00
  YS02001904YS02001907    1.00   0.00  0.05  0.00  0.95  0.00  0.00  0.00  0.00  0.00
  YS02001887YS02001890    1.00   0.00  0.00  0.00  0.97  0.00  0.02  0.00  0.00  0.00
  YS02001652YS02001649    1.00   0.00  0.00  0.00  1.00  0.00  0.00  0.00  0.16  0.00
  YS02001655YS02001652    1.00   0.00  0.00  0.00  0.94  0.00  0.00  0.06  0.02  0.00
  YS02001658YS02001655    1.00   0.00  0.04  0.00  0.94  0.02  0.00  0.00  0.04  0.00
  YS02001661YS02001658    1.00   0.04  0.00  0.00  0.90  0.05  0.00  0.00  0.04  0.00
  YS02001664YS02001661    1.00   0.04  0.00  0.00  0.86  0.09  0.00  0.00  0.19  0.00
  YSB1154YSB6556          1.00   0.04  0.00  0.00  0.96  0.00  0.00  0.00  0.02  0.00
  YSB1174YSB1171          1.00   0.03  0.01  0.00  0.96  0.00  0.00  0.00  0.00  0.00
  YSB1171HS02004479       1.00   0.03  0.00  0.00  0.97  0.00  0.00  0.00  0.10  0.00
  HS02004881HS02006253    1.00   0.03  0.00  0.00  0.71  0.02  0.00  0.24  0.54  0.00
  YS02001793JiankangQianchi    1.00   0.00  0.00  0.00  0.72  0.27  0.00  0.00  0.35  0.00
  YS02001757CaochengTiaoxuchi    1.00   0.00  0.06  0.00  0.92  0.02  0.00  0.00  0.00  0.00
  WSF200WS02003060        1.00   0.00  0.05  0.00  0.41  0.54  0.00  0.00  0.28  0.00
  1                       1.00   0.00  0.00  0.00  0.00  1.00  0.00  0.00  0.32  0.00
  2                       1.00   0.72  0.00  0.00  0.00  0.28  0.00  0.00  0.07  0.00
  3                       1.00   0.19  0.00  0.00  0.00  0.81  0.00  0.00  0.29  0.00
  4                       1.00   1.00  0.00  0.00  0.00  0.00  0.00  0.00  0.00  0.00
  
  
  *************************
  Conduit Surcharge Summary
  *************************
  
  ----------------------------------------------------------------------------
                                                           Hours        Hours 
                         --------- Hours Full --------   Above Full   Capacity
  Conduit                Both Ends  Upstream  Dnstream   Normal Flow   Limited
  ----------------------------------------------------------------------------
  WS02006229WS02006228        1.62      1.85      1.62      4.77         1.62
  WS02006256WS02006235        6.26      6.26      7.22      3.39         0.01
  WS02006253WS02006251        0.01      0.01      0.01      0.01         0.01
  WS02006252WS02006251        0.64      0.64      1.78      1.49         0.01
  WS02006251WS02006249        0.01      0.01      0.01      0.67         0.01
  WS02006249WS02006248        0.01      0.01      0.01      3.94         0.01
  WS02006247WS02006245        0.01      0.01      0.01      4.25         0.01
  WS02006245WS02006243        0.01      0.01      0.08      0.03         0.01
  WS02006243WS02006242        0.11      0.11      0.52      0.01         0.01
  WS02006242WS02006240        0.21      0.21      1.00      1.76         0.01
  WS02006240WS02006239        0.23      0.23      0.26      0.07         0.01
  WS02006239WS02006238        0.86      0.87      1.01      0.07         0.01
  WS02006238WS02006235        0.88      0.88      1.43      0.01         0.01
  WS02006235WS02006234        0.28      0.28      0.63      6.18         0.01
  WS02006234WS02006232        0.31      0.31      1.65      0.01         0.01
  WS02006232WS02006231        0.23      0.23      1.65      0.01         0.01
  WS02006231WS02006230        0.10      0.10      0.25      6.35         0.01
  WS02006230WS02006229        3.31      4.09      3.31      6.43         3.31
  WS02006228WS02006109        1.73      2.83      1.73      5.43         1.73
  WS02006112WS02006115        0.01      0.01      0.51      0.01         0.01
  WS02006111WS02006112        0.01      0.01      4.87      0.01         0.01
  WS02006110WS02006113        0.01      0.01      2.23      0.01         0.01
  WS02006109WS02006110        0.41      0.41      2.83      0.42         0.01
  WS02004405WS02004406        0.01      0.01      0.01      0.46         0.01
  WS02004404WS02004405        0.01      0.16      0.01      6.25         0.01
  WS02004403WS02004404        0.01      0.01      0.16      0.01         0.01
  WS02003072WS02003073        0.01      0.01      0.01      5.50         0.01
  YS02001759YS02001757        5.98      5.98      6.04      0.01         0.01
  YS02001762YS02001759        5.96      5.96      5.98      0.01         0.01
  YS02001765YS02001762        5.94      5.94      5.96      0.01         0.01
  YS02001770YS02001767        5.92      5.92      5.92      0.04         0.81
  YS02001774YS02001770        5.84      5.84      5.95      0.01         0.01
  YS02001779YS02001774        5.69      5.69      5.95      0.01         0.01
  YS02001649YS02001757        5.96      5.96      6.04      0.01         0.01
  YS02001767YS02001765        5.92      5.92      5.94      0.01         0.01
  YS02006561YS02001783        0.01      0.01      1.29      0.01         0.01
  YS02001783YS02001784        1.29      1.29      1.36      0.89         0.86
  YS02001784YS02001785        1.30      1.36      1.30      2.02         1.30
  YS02001788YS02001790        1.29      1.29      2.25      0.01         0.01
  YS02001790YS02001791        2.25      2.25      2.29      0.01         0.01
  YS02001791YS02001793        2.29      2.29      2.37      0.01         0.01
  YS02001910YS02001907        0.83      0.83      1.44      0.01         0.01
  YS02001786YS02001788        1.29      1.30      1.29      1.67         1.29
  YS02001915YS02001910        0.45      0.45      0.83      0.01         0.01
  YS02001918YS02001915        0.01      0.01      0.45      0.01         0.01
  YS02001629YS02163301        5.84      5.84      5.91      0.01         0.01
  YS02001619YS02001622        5.50      5.50      5.57      0.01         0.01
  YS02001622YS02001625        5.57      5.57      5.74      0.01         0.01
  YS02001625YS02001629        5.52      5.52      5.74      0.01         0.01
  YS02163301YS02001633        5.91      5.91      5.94      0.01         0.01
  YS02163601YS02164001        5.94      5.94      5.96      0.01         0.01
  YS02164001YS02001641        5.94      5.94      5.94      0.01         0.03
  YS02001641YS02001644        5.94      5.94      5.95      1.04         1.24
  YS02001647YS02001649        5.73      5.73      5.96      0.01         0.01
  YS02006553YS02006556        1.14      1.14      1.50      0.01         0.01
  YS02006556YS02006558        1.31      1.31      1.57      0.01         0.01
  YS02001907YS02006553        2.04      2.04      2.24      0.01         0.01
  YS02006558YS02006561        0.66      1.08      0.66      1.89         0.66
  YS02001633YS02163601        5.93      5.93      5.96      0.01         0.01
  YS02001644YS02001647        5.73      5.73      5.95      0.01         0.01
  YS02001745YS02001748        0.01      0.01      5.30      0.01         0.01
  YS02001748YS02001751        5.37      5.37      5.51      0.01         0.01
  YS02001751YS02001754        5.51      5.51      5.71      0.01         0.01
  YS02001754YS02001757        5.73      5.73      6.04      0.01         0.01
  YS02001882YS02001884        0.48      0.48      0.56      0.01         0.01
  YS02001884YS02001887        0.67      0.67      0.72      0.01         0.01
  YS02001890YS02001895        0.41      0.41      0.87      0.01         0.01
  YS02001895YS02001898        0.37      0.37      0.41      0.01         0.01
  YS02001898YS02001901        0.43      0.43      0.65      0.01         0.01
  YS02001901YS02001904        0.61      0.61      0.65      0.01         0.01
  YS02001904YS02001907        0.61      0.61      1.52      0.01         0.01
  YS02001887YS02001890        0.76      0.76      0.81      0.01         0.01
  YS02001652YS02001649        5.74      5.74      5.96      0.01         0.01
  YS02001655YS02001652        5.54      5.54      5.73      0.01         0.01
  YS02001658YS02001655        5.34      5.34      5.54      0.01         0.01
  YS02001661YS02001658        0.21      0.21      5.34      0.01         0.01
  YS02001664YS02001661        0.01      0.01      1.10      0.01         0.01
  YS02001793JiankangQianchi        2.34      2.34      4.39      0.01         0.01
  YS02001757CaochengTiaoxuchi        5.22      5.22      6.04      0.01         0.01
  
  
  ***************
  Pumping Summary
  ***************
  
  ---------------------------------------------------------------------------------------------------------
                                                  Min       Avg       Max     Total     Power    % Time Off
                        Percent   Number of      Flow      Flow      Flow    Volume     Usage    Pump Curve
  Pump                 Utilized   Start-Ups       LPS       LPS       LPS  10^6 ltr     Kw-hr    Low   High
  ---------------------------------------------------------------------------------------------------------
  CC-Pump-1               55.65           5      0.00    138.77    200.00     2.154      2.54    0.0   12.1
  CC-Pump-2               46.80           4      0.00    137.51    200.00     1.800      2.57    0.0   13.6
  JK-Pump-1               59.56           8      0.00    196.25    300.00     2.591     26.18    0.0    0.0
  JK-Pump-2               72.33           9      0.00    177.95    300.00     2.924     35.67    0.0    0.0
  XR-Pump-1               65.94           7      0.00     64.69     95.00     1.254      8.80    0.0    0.0
  XR-Pump-2               87.22           9      0.00     69.89     95.00     1.653     10.38    0.0    0.0
  XR-Pump-3               61.70           8      0.00     57.80     95.00     1.055      7.92    0.0    0.0
  XR-Pump-4               72.33           7      0.00     64.58     95.00     1.339      8.89    0.0    0.0
  

  Analysis begun on:  Tue Jan  4 21:07:13 2022
  Analysis ended on:  Tue Jan  4 21:07:17 2022
  Total elapsed time: 00:00:04