
  EPA STORM WATER MANAGEMENT MODEL - VERSION 5.1 (Build 5.3.0.dev0)
  --------------------------------------------------------------

  WARNING 04: minimum elevation drop used for Conduit WS02004404WS02004405
  WARNING 03: negative offset ignored for Link YS02001904YS02001907
  
  *********************************************************
  NOTE: The summary statistics displayed in this report are
  based on results found at every computational time step,  
  not just on results from each reporting time step.
  *********************************************************
  
  ****************
  Analysis Options
  ****************
  Flow Units ............... LPS
  Process Models:
    Rainfall/Runoff ........ YES
    RDII ................... NO
    Snowmelt ............... NO
    Groundwater ............ NO
    Flow Routing ........... YES
    Ponding Allowed ........ NO
    Water Quality .......... NO
  Infiltration Method ...... HORTON
  Flow Routing Method ...... DYNWAVE
  Surcharge Method ......... EXTRAN
  Starting Date ............ 08/28/2015 08:00:00
  Ending Date .............. 08/28/2015 15:50:00
  Antecedent Dry Days ...... 8.0
  Report Time Step ......... 00:01:00
  Wet Time Step ............ 00:01:00
  Dry Time Step ............ 00:01:00
  Routing Time Step ........ 5.00 sec
  Variable Time Step ....... YES
  Maximum Trials ........... 8
  Number of Threads ........ 4
  Head Tolerance ........... 0.001500 m
  
  
  **************************        Volume         Depth
  Runoff Quantity Continuity     hectare-m            mm
  **************************     ---------       -------
  Total Precipitation ......         5.556        12.164
  Evaporation Loss .........         0.000         0.000
  Infiltration Loss ........         1.427         3.124
  Surface Runoff ...........         3.072         6.726
  Final Storage ............         1.058         2.316
  Continuity Error (%) .....        -0.016
  
  
  **************************        Volume        Volume
  Flow Routing Continuity        hectare-m      10^6 ltr
  **************************     ---------     ---------
  Dry Weather Inflow .......         0.616         6.165
  Wet Weather Inflow .......         3.071        30.708
  Groundwater Inflow .......         0.000         0.000
  RDII Inflow ..............         0.000         0.000
  External Inflow ..........         0.102         1.024
  External Outflow .........         1.911        19.114
  Flooding Loss ............         1.355        13.549
  Evaporation Loss .........         0.000         0.000
  Exfiltration Loss ........         0.000         0.000
  Initial Stored Volume ....         0.076         0.761
  Final Stored Volume ......         0.606         6.057
  Continuity Error (%) .....        -0.163
  
  
  *************************
  Highest Continuity Errors
  *************************
  Node HS02004842 (16.24%)
  Node YS02001884 (11.91%)
  Node YSB1171 (3.12%)
  Node HS02004817 (2.99%)
  Node YS02001774 (2.42%)
  
  
  ***************************
  Time-Step Critical Elements
  ***************************
  Link WS02006252WS02006251 (48.84%)
  Link 3 (41.41%)
  Link WS02006238WS02006235 (3.27%)
  Link WS02006280WS02006229 (1.76%)
  
  
  ********************************
  Highest Flow Instability Indexes
  ********************************
  Link YS02163601YS02164001 (42)
  Link YS02163301YS02001633 (42)
  Link YS02001619YS02001622 (42)
  Link YS02001629YS02163301 (41)
  Link YS02164001YS02001641 (38)
  
  
  *************************
  Routing Time Step Summary
  *************************
  Minimum Time Step           :     0.21 sec
  Average Time Step           :     0.84 sec
  Maximum Time Step           :     5.00 sec
  Percent in Steady State     :    -0.00
  Average Iterations per Step :     4.75
  Percent Not Converging      :    23.06
  
  
  ***************************
  Subcatchment Runoff Summary
  ***************************
  
  ------------------------------------------------------------------------------------------------------------------------------
                            Total      Total      Total      Total     Imperv       Perv      Total       Total     Peak  Runoff
                           Precip      Runon       Evap      Infil     Runoff     Runoff     Runoff      Runoff   Runoff   Coeff
  Subcatchment                 mm         mm         mm         mm         mm         mm         mm    10^6 ltr      LPS
  ------------------------------------------------------------------------------------------------------------------------------
  sub0                      12.16       0.00       0.00       0.85      10.05       0.00      10.05        0.01     1.91   0.826
  sub1                      12.16       0.00       0.00       1.34       9.56       0.00       9.56        0.06    14.15   0.786
  sub2                      12.16       0.00       0.00       4.50       6.75       0.00       6.75        0.06    13.75   0.555
  sub3                      12.16       0.00       0.00       4.50       6.71       0.00       6.71        0.15    32.07   0.552
  sub4                      12.16       0.00       0.00       1.34       9.40       0.00       9.40        0.20    40.20   0.773
  sub5                      12.16       0.00       0.00       0.85       9.99       0.00       9.99        0.11    25.19   0.822
  sub7                      12.16       0.00       0.00       1.09       9.81       0.00       9.81        0.03     7.55   0.807
  sub8                      12.16       0.00       0.00       1.09       9.80       0.00       9.80        0.06    14.17   0.806
  sub9                      12.16       0.00       0.00       1.09       9.80       0.00       9.80        0.05    10.64   0.806
  sub10                     12.16       0.00       0.00       0.97       9.89       0.00       9.89        0.11    24.40   0.813
  sub11                     12.16       0.00       0.00       0.97       9.91       0.00       9.91        0.12    26.15   0.815
  sub12                     12.16       0.00       0.00       1.58       9.39       0.00       9.39        0.08    19.06   0.772
  sub14                     12.16       0.00       0.00       1.09       9.80       0.00       9.80        0.09    21.02   0.805
  sub15                     12.16       0.00       0.00       3.65       7.53       0.00       7.53        0.13    29.11   0.619
  sub16                     12.16       0.00       0.00       4.01       7.23       0.00       7.23        0.08    17.47   0.594
  sub17                     12.16       0.00       0.00       3.89       7.34       0.00       7.34        0.06    14.47   0.603
  sub22                     12.16       0.00       0.00       5.23       6.14       0.00       6.14        0.39    88.27   0.505
  sub23                     12.16       0.00       0.00       4.50       6.79       0.00       6.79        0.32    73.89   0.558
  sub60                     12.16       0.00       0.00       1.46       7.71       0.00       7.71        2.34   297.17   0.634
  sub61                     12.16       0.00       0.00       2.07       7.87       0.00       7.87        2.43   359.80   0.647
  sub62                     12.16       0.00       0.00       0.97       8.55       0.00       8.55        2.63   372.87   0.703
  sub63                     12.16       0.00       0.00       3.53       6.89       0.00       6.89        2.09   327.80   0.567
  sub64                     12.16       0.00       0.00       1.82       7.40       0.00       7.40        2.25   282.66   0.608
  sub65                     12.16       0.00       0.00       1.58       7.52       0.00       7.52        2.31   287.20   0.618
  sub66                     12.16       0.00       0.00       3.53       6.36       0.00       6.36        1.95   257.27   0.523
  sub67                     12.16       0.00       0.00       0.97       9.05       0.00       9.05        2.79   452.90   0.744
  sub68                     12.16       0.00       0.00       1.70       8.28       0.00       8.28        2.55   391.99   0.681
  sub69                     12.16       0.00       0.00       1.82       8.61       0.00       8.61        2.01   355.79   0.708
  sub70                     12.16       8.79       0.00       7.03      11.43       0.10      11.53        2.64   335.00   0.550
  sub71                     12.16       0.00       0.00       0.97       8.31       0.00       8.31        1.96   263.63   0.683
  sub72                     12.16       0.00       0.00       0.85       6.56       0.00       6.56        1.34   129.40   0.540
  sub73                     12.16      11.23       0.00       7.88      12.47       0.08      12.54        2.95   300.52   0.536
  sub74                     12.16       0.00       0.00       9.12       2.57       0.00       2.57        1.03   189.59   0.211
  
  
  ******************
  Node Depth Summary
  ******************
  
  ---------------------------------------------------------------------------------
                                 Average  Maximum  Maximum  Time of Max    Reported
                                   Depth    Depth      HGL   Occurrence   Max Depth
  Node                 Type       Meters   Meters   Meters  days hr:min      Meters
  ---------------------------------------------------------------------------------
  WS02001211           JUNCTION     0.64     0.73     5.56     0  03:01        0.73
  WS02001212           JUNCTION     0.37     0.46     5.52     0  03:01        0.46
  WS02001213           JUNCTION     0.61     0.73     5.49     0  03:02        0.73
  WS02003069           JUNCTION     0.45     0.59     5.17     0  03:03        0.59
  WS02003072           JUNCTION     0.51     0.65     5.02     0  03:04        0.65
  WS02003073           JUNCTION     0.31     0.40     4.46     0  03:05        0.40
  WS02003060           JUNCTION     0.40     0.52     5.45     0  03:03        0.52
  WS02003066           JUNCTION     0.25     0.33     5.88     0  03:05        0.33
  WS02003059           JUNCTION     0.68     0.79     5.48     0  03:02        0.79
  WS02003067           JUNCTION     0.60     0.74     6.06     0  03:04        0.74
  WS02004401           JUNCTION     0.71     0.97     6.97     0  03:02        0.97
  WS02004402           JUNCTION     0.74     0.99     6.95     0  03:02        0.99
  WS02004403           JUNCTION     0.76     0.99     6.92     0  03:02        0.99
  WS02004404           JUNCTION     0.83     1.05     6.90     0  03:02        1.05
  WS02004406           JUNCTION     0.84     1.03     6.86     0  03:03        1.03
  WS02004409           JUNCTION     0.53     0.75     6.52     0  03:03        0.75
  WS02004410           JUNCTION     0.55     0.76     6.48     0  03:03        0.76
  WS02004411           JUNCTION     0.56     0.76     6.44     0  03:04        0.76
  WS02004412           JUNCTION     0.57     0.76     6.40     0  03:04        0.76
  WS02004413           JUNCTION     0.73     0.91     6.38     0  03:04        0.91
  WS02004405           JUNCTION     0.83     1.04     6.89     0  03:03        1.04
  WS02006109           JUNCTION     0.80     1.11     7.73     0  03:01        1.09
  WS02006110           JUNCTION     0.78     1.02     7.61     0  03:01        1.01
  WS02006111           JUNCTION     0.23     0.35     7.06     0  03:03        0.35
  WS02006112           JUNCTION     0.89     1.20     7.08     0  03:03        1.18
  WS02006113           JUNCTION     0.36     0.51     7.40     0  03:01        0.51
  WS02006115           JUNCTION     0.61     0.88     7.02     0  03:02        0.88
  WS02006116           JUNCTION     0.69     0.96     7.00     0  03:02        0.96
  WS02006230           JUNCTION     0.78     1.16     7.90     0  03:02        1.16
  WS02006231           JUNCTION     0.52     0.81     7.94     0  03:02        0.81
  WS02006232           JUNCTION     0.66     0.94     7.97     0  02:53        0.93
  WS02006234           JUNCTION     0.58     0.86     8.02     0  02:39        0.85
  WS02006235           JUNCTION     0.61     0.88     8.05     0  02:39        0.87
  WS02006238           JUNCTION     0.64     0.91     8.06     0  02:39        0.90
  WS02006240           JUNCTION     0.53     0.83     8.13     0  02:39        0.81
  WS02006242           JUNCTION     0.59     0.89     8.16     0  02:39        0.86
  WS02006243           JUNCTION     0.47     0.80     8.22     0  02:39        0.75
  WS02006245           JUNCTION     0.44     0.73     8.21     0  02:41        0.72
  WS02006247           JUNCTION     0.46     0.73     8.23     0  02:41        0.72
  WS02006248           JUNCTION     0.40     0.65     8.24     0  02:41        0.65
  WS02006249           JUNCTION     0.43     0.65     8.25     0  02:50        0.65
  WS02006239           JUNCTION     0.59     0.89     8.10     0  02:39        0.87
  WS02006251           JUNCTION     0.42     0.70     8.37     0  02:50        0.70
  WS02006252           JUNCTION     0.37     0.59     8.84     0  02:39        0.59
  WS02006253           JUNCTION     0.45     0.73     8.38     0  02:50        0.73
  WS02006256           JUNCTION     1.07     1.15     8.09     0  00:00        1.14
  WS02004138           JUNCTION     0.14     0.17     7.42     0  01:10        0.17
  WS02004407           JUNCTION     0.24     0.33     6.64     0  03:03        0.33
  WS02006228           JUNCTION     0.80     1.17     7.82     0  03:01        1.16
  WS02006229           JUNCTION     0.78     1.17     7.87     0  03:01        1.17
  WS02006280           JUNCTION     0.07     0.19     8.46     0  03:02        0.19
  WS02006284           JUNCTION     0.37     0.55     8.95     0  03:02        0.55
  WS02006287           JUNCTION     0.11     0.28     9.24     0  03:01        0.28
  WSF200               JUNCTION     0.24     0.35     5.59     0  03:04        0.35
  HS02004901           JUNCTION     0.13     0.28    10.10     0  03:01        0.28
  HS02004881           JUNCTION     0.01     0.04     9.07     0  03:01        0.04
  HS02004876           JUNCTION     0.05     0.12     9.15     0  03:01        0.12
  HS02004870           JUNCTION     0.02     0.06     9.35     0  03:01        0.06
  HS02004862           JUNCTION     0.02     0.07     9.46     0  03:01        0.07
  HS02004856           JUNCTION     0.08     0.13     9.55     0  03:01        0.13
  HS02004852           JUNCTION     0.01     0.05     9.56     0  03:01        0.05
  HS02004848           JUNCTION     0.01     0.05     9.65     0  03:01        0.05
  HS02004842           JUNCTION     0.33     0.38     9.65     0  03:01        0.38
  HS02004837           JUNCTION     0.03     0.07     9.65     0  03:01        0.07
  HS02004830           JUNCTION     0.04     0.08     9.55     0  03:01        0.08
  HS02004824           JUNCTION     0.03     0.06     9.46     0  03:01        0.06
  HS02004817           JUNCTION     0.44     0.60     9.44     0  03:01        0.60
  HS02004807           JUNCTION     0.13     0.27     9.44     0  03:01        0.27
  HS02004802           JUNCTION     0.17     0.30     9.43     0  03:01        0.30
  HS02004799           JUNCTION     0.13     0.33     9.54     0  03:01        0.33
  HS02004792           JUNCTION     0.04     0.14     9.66     0  03:01        0.14
  HS02004788           JUNCTION     0.03     0.10    10.00     0  03:01        0.10
  HS02004785           JUNCTION     0.05     0.17    10.07     0  03:01        0.17
  HS02004777           JUNCTION     0.15     0.30    10.10     0  03:01        0.30
  HS02004770           JUNCTION     0.12     0.27    10.10     0  03:01        0.27
  HS02004480           JUNCTION     0.09     0.26     9.50     0  03:01        0.26
  HS02004479           JUNCTION     0.12     0.30     9.50     0  03:01        0.30
  HS02004478           JUNCTION     0.07     0.18     9.41     0  03:01        0.18
  YS02001745           JUNCTION     0.69     0.89     8.41     0  03:25        0.89
  YS02001748           JUNCTION     1.08     2.27     9.35     0  02:40        1.32
  YS02001751           JUNCTION     1.26     2.20     9.08     0  02:40        1.53
  YS02001754           JUNCTION     1.51     2.13     8.74     0  02:40        1.81
  YS02001762           JUNCTION     1.71     2.04     8.44     0  02:40        2.02
  YS02001765           JUNCTION     1.67     1.99     8.44     0  02:40        1.97
  YS02001767           JUNCTION     1.63     1.93     8.42     0  03:26        1.92
  YS02001770           JUNCTION     1.62     1.95     8.44     0  02:40        1.90
  YS02001774           JUNCTION     1.69     2.01     8.43     0  02:40        1.96
  YS02001779           JUNCTION     1.44     1.68     8.37     0  02:40        1.68
  YS02001882           JUNCTION     0.54     1.61     8.33     0  03:00        1.60
  YS02001884           JUNCTION     0.63     1.71     8.33     0  03:00        1.71
  YS02001759           JUNCTION     1.75     2.09     8.45     0  02:40        2.06
  YS02001887           JUNCTION     0.71     1.79     8.33     0  03:00        1.77
  YS02001890           JUNCTION     0.74     1.81     8.32     0  03:00        1.80
  YS02001898           JUNCTION     0.51     1.55     8.29     0  03:00        1.55
  YS02001901           JUNCTION     0.63     1.67     8.28     0  02:52        1.67
  YS02001904           JUNCTION     0.61     1.64     8.27     0  02:53        1.63
  YS02001907           JUNCTION     0.93     1.96     8.25     0  02:52        1.96
  YS02001910           JUNCTION     0.73     1.77     8.28     0  02:53        1.76
  YS02001915           JUNCTION     0.52     1.59     8.30     0  02:53        1.58
  YS02001918           JUNCTION     0.27     1.27     8.33     0  02:53        1.25
  YS02001619           JUNCTION     1.23     1.61     8.54     0  02:36        1.47
  YS02001629           JUNCTION     1.58     1.85     8.40     0  02:36        1.84
  YS02001641           JUNCTION     1.68     1.93     8.37     0  03:09        1.93
  YS02001644           JUNCTION     1.68     1.92     8.35     0  02:40        1.92
  YS02001652           JUNCTION     1.53     2.16     8.76     0  02:56        1.92
  YS02001655           JUNCTION     1.29     2.20     9.05     0  02:36        1.77
  YS02001920           JUNCTION     0.37     1.34     8.35     0  02:53        1.32
  YS02001923           JUNCTION     0.21     1.10     8.36     0  02:53        1.08
  YS02001926           JUNCTION     0.26     0.91     8.36     0  02:53        0.89
  YS02001929           JUNCTION     0.15     0.69     8.39     0  02:53        0.67
  YS02001658           JUNCTION     1.02     2.30     9.44     0  02:36        1.50
  YS02001661           JUNCTION     0.79     2.46     9.86     0  02:56        1.34
  YS02001664           JUNCTION     0.34     0.57     8.49     0  02:54        0.56
  YS02001622           JUNCTION     1.25     1.62     8.52     0  02:36        1.49
  YS02001633           JUNCTION     1.67     1.95     8.40     0  02:53        1.94
  YS02001649           JUNCTION     1.72     2.05     8.44     0  02:37        2.05
  YS02001757           JUNCTION     1.84     2.19     8.45     0  02:40        2.16
  YS02001895           JUNCTION     0.50     1.56     8.30     0  03:00        1.55
  YS02001625           JUNCTION     1.53     1.78     8.38     0  02:36        1.78
  YS02163301           JUNCTION     1.61     1.89     8.40     0  02:39        1.88
  YS02163601           JUNCTION     1.72     1.99     8.39     0  02:56        1.98
  YS02164001           JUNCTION     1.66     1.92     8.38     0  02:49        1.91
  YS02001647           JUNCTION     1.51     1.80     8.41     0  03:03        1.79
  YSB1154              JUNCTION     0.26     0.45     9.51     0  03:01        0.45
  YSB6556              JUNCTION     0.16     0.34     9.51     0  03:01        0.34
  YSB1174              JUNCTION     0.22     0.40     9.51     0  03:01        0.40
  YSB1171              JUNCTION     0.41     0.60     9.51     0  03:01        0.60
  YS02006553           JUNCTION     0.94     1.96     8.25     0  02:59        1.96
  YS02006561           JUNCTION     0.31     1.08     7.74     0  02:58        1.07
  YS02006556           JUNCTION     0.90     1.92     8.23     0  02:59        1.91
  YS02006558           JUNCTION     0.95     1.96     8.23     0  03:00        1.95
  YS02001783           JUNCTION     0.56     1.75     7.89     0  02:37        1.46
  YS02001784           JUNCTION     0.58     2.18     8.25     0  02:37        1.41
  YS02001786           JUNCTION     0.53     1.91     7.94     0  02:37        1.26
  YS02001788           JUNCTION     0.48     2.28     8.26     0  02:37        1.12
  YS02001790           JUNCTION     0.63     1.96     7.60     0  02:36        1.29
  YS02001791           JUNCTION     0.64     1.81     7.28     0  02:37        1.27
  YS02001793           JUNCTION     0.92     2.38     7.21     0  02:34        1.80
  WS02004139           JUNCTION     0.58     0.66     5.57     0  03:01        0.66
  WSC                  OUTFALL      0.31     0.40     1.07     0  03:05        0.40
  3                    OUTFALL      0.10     0.14     6.14     0  02:50        0.14
  4                    OUTFALL      0.03     0.15     7.15     0  02:50        0.15
  5                    OUTFALL      0.00     0.00     5.00     0  00:00        0.00
  JK-storage           STORAGE      3.42     5.80     6.60     0  02:37        5.80
  CC-storage           STORAGE      1.07     1.40     8.40     0  03:24        1.40
  XR-storage           STORAGE      7.27     7.72     5.72     0  02:35        7.72
  
  
  *******************
  Node Inflow Summary
  *******************
  
  -------------------------------------------------------------------------------------------------
                                  Maximum  Maximum                  Lateral       Total        Flow
                                  Lateral    Total  Time of Max      Inflow      Inflow     Balance
                                   Inflow   Inflow   Occurrence      Volume      Volume       Error
  Node                 Type           LPS      LPS  days hr:min    10^6 ltr    10^6 ltr     Percent
  -------------------------------------------------------------------------------------------------
  WS02001211           JUNCTION      7.35   293.01     0  03:50       0.207        6.28       0.503
  WS02001212           JUNCTION      0.00   293.62     0  03:50           0        6.25       0.280
  WS02001213           JUNCTION      0.00   294.46     0  03:50           0        6.23       0.345
  WS02003069           JUNCTION      0.32   953.26     0  03:03     0.00902        15.1       0.203
  WS02003072           JUNCTION      0.00   952.98     0  03:04           0        15.1       0.248
  WS02003073           JUNCTION      1.82   954.81     0  03:04      0.0514        15.1       0.281
  WS02003060           JUNCTION     16.53   953.01     0  03:02       0.466        15.1       0.193
  WS02003066           JUNCTION      0.00   660.26     0  03:05           0         8.5       0.060
  WS02003059           JUNCTION      0.00   296.17     0  03:51           0        6.21       0.599
  WS02003067           JUNCTION      0.00   660.18     0  03:04           0        8.51       0.123
  WS02004401           JUNCTION      0.00   661.70     0  03:02           0        8.77       0.276
  WS02004402           JUNCTION      0.00   661.33     0  03:02           0        8.75       0.257
  WS02004403           JUNCTION      0.00   660.73     0  03:02           0        8.72       0.231
  WS02004404           JUNCTION      0.16   660.89     0  03:03     0.00457        8.71       0.171
  WS02004406           JUNCTION      0.00   660.97     0  03:03           0        8.67       0.416
  WS02004409           JUNCTION      0.00   660.90     0  03:03           0        8.63       0.229
  WS02004410           JUNCTION      0.00   660.69     0  03:03           0        8.61       0.254
  WS02004411           JUNCTION      0.00   660.48     0  03:04           0        8.59       0.256
  WS02004412           JUNCTION      0.00   660.34     0  03:04           0        8.56       0.272
  WS02004413           JUNCTION      0.00   660.26     0  03:04           0        8.54       0.393
  WS02004405           JUNCTION      0.04   660.94     0  03:03     0.00107         8.7       0.255
  WS02006109           JUNCTION      1.23   651.59     0  03:02      0.0347        8.85       0.257
  WS02006110           JUNCTION      0.00   651.62     0  03:02           0        8.82       0.246
  WS02006111           JUNCTION      0.00   684.56     0  03:02           0        8.79       0.062
  WS02006112           JUNCTION     14.47   664.08     0  03:02      0.0629        8.85       0.358
  WS02006113           JUNCTION      0.00   653.53     0  03:01           0         8.8       0.131
  WS02006115           JUNCTION      0.00   664.21     0  03:02           0        8.82       0.270
  WS02006116           JUNCTION      0.00   661.96     0  03:02           0        8.79       0.253
  WS02006230           JUNCTION     10.28   395.27     0  05:52        0.29        6.97       0.218
  WS02006231           JUNCTION      0.00   386.78     0  05:52           0        6.69       0.219
  WS02006232           JUNCTION      0.00   386.90     0  05:52           0        6.71       0.264
  WS02006234           JUNCTION      0.00   388.56     0  05:52           0        6.72       0.157
  WS02006235           JUNCTION      0.00   388.07     0  05:52           0        6.76       0.178
  WS02006238           JUNCTION      0.00   314.72     0  07:49           0        4.67       0.194
  WS02006240           JUNCTION      0.00   317.17     0  06:52           0        4.67       0.341
  WS02006242           JUNCTION      0.00   326.88     0  06:51           0        4.68       0.398
  WS02006243           JUNCTION      0.00   335.80     0  06:51           0        4.68       0.143
  WS02006245           JUNCTION      0.00   342.63     0  06:51           0        4.69       0.284
  WS02006247           JUNCTION      0.00   348.72     0  06:51           0         4.7       0.225
  WS02006248           JUNCTION      0.00   354.30     0  06:51           0        4.71       0.158
  WS02006249           JUNCTION      0.00   471.33     0  02:50           0        5.28       0.286
  WS02006239           JUNCTION      0.00   314.71     0  07:49           0        4.67       0.316
  WS02006251           JUNCTION      0.08   471.90     0  02:41     0.00217        5.31       0.269
  WS02006252           JUNCTION      0.00   400.00     0  02:40           0        4.93       0.010
  WS02006253           JUNCTION      1.91    81.00     0  03:01     0.00814       0.384       2.212
  WS02006256           JUNCTION      0.00   300.00     0  00:00           0        5.64       0.054
  WS02004138           JUNCTION      0.00   285.00     0  00:20           0         6.1       0.063
  WS02004407           JUNCTION      0.00   661.05     0  03:03           0        8.64       0.102
  WS02006228           JUNCTION      0.00   650.36     0  03:02           0        8.83       0.183
  WS02006229           JUNCTION      0.00   648.34     0  03:02           0        8.84       0.150
  WS02006280           JUNCTION      0.00   375.55     0  03:02           0        1.89       0.004
  WS02006284           JUNCTION      0.10   375.54     0  03:02      0.0027        1.89       0.064
  WS02006287           JUNCTION      0.00   375.27     0  03:01           0        1.89       0.038
  WSF200               JUNCTION      0.00   660.31     0  03:05           0        8.49       0.064
  HS02004901           JUNCTION     17.47    17.47     0  03:01      0.0757      0.0759       2.380
  HS02004881           JUNCTION      7.55    79.19     0  03:01      0.0331       0.357       0.071
  HS02004876           JUNCTION     14.15    72.10     0  03:01      0.0636       0.324       0.171
  HS02004870           JUNCTION     14.17    58.27     0  03:01      0.0626       0.261       0.043
  HS02004862           JUNCTION     13.95    44.46     0  03:01      0.0685       0.198       0.089
  HS02004856           JUNCTION     10.64    30.79     0  03:01      0.0471       0.131       1.114
  HS02004852           JUNCTION      0.00    20.44     0  03:01           0       0.084       0.069
  HS02004848           JUNCTION     32.07    32.07     0  03:01       0.151       0.151       0.033
  HS02004842           JUNCTION      0.00    11.42     0  03:01           0      0.0801      19.389
  HS02004837           JUNCTION     30.75    41.91     0  03:01       0.288       0.355       0.229
  HS02004830           JUNCTION      0.15    41.84     0  03:01     0.00423       0.346       0.359
  HS02004824           JUNCTION     40.25    81.79     0  03:01       0.197       0.542       0.100
  HS02004817           JUNCTION      0.60    82.18     0  03:01      0.0169       0.558       3.079
  HS02004807           JUNCTION     26.15   107.24     0  03:01       0.115       0.657       0.656
  HS02004802           JUNCTION      0.00   106.49     0  03:01           0       0.653       0.618
  HS02004799           JUNCTION     21.02   227.51     0  03:01      0.0932        1.06       0.236
  HS02004792           JUNCTION     88.55   207.32     0  03:01       0.396       0.966       0.043
  HS02004788           JUNCTION     30.78   119.37     0  03:01       0.177       0.571       0.069
  HS02004785           JUNCTION      0.15    89.79     0  03:01     0.00423       0.396       0.125
  HS02004777           JUNCTION      0.03    90.24     0  03:01    0.000846       0.397       1.326
  HS02004770           JUNCTION     73.89    90.93     0  03:01       0.324       0.398       0.787
  HS02004480           JUNCTION      0.00   269.28     0  03:01           0        1.25       0.099
  HS02004479           JUNCTION      0.00    42.82     0  03:02           0       0.204       0.360
  HS02004478           JUNCTION      0.00   375.17     0  03:01           0        1.89       0.018
  YS02001745           JUNCTION    297.18   416.58     0  02:40        2.34        2.35       0.362
  YS02001748           JUNCTION      0.04   606.52     0  02:40     0.00127        2.34       0.943
  YS02001751           JUNCTION      0.01   344.11     0  02:31     0.00031        2.31       1.019
  YS02001754           JUNCTION      0.26   308.44     0  03:01     0.00733        2.29       1.079
  YS02001762           JUNCTION      0.00   336.38     0  02:55           0        1.86       1.138
  YS02001765           JUNCTION      0.00   336.16     0  02:55           0        1.87       1.308
  YS02001767           JUNCTION      0.54   336.16     0  02:55      0.0151        1.89       1.917
  YS02001770           JUNCTION    373.02   373.02     0  03:01        2.63        2.79       1.131
  YS02001774           JUNCTION      0.00   371.26     0  03:29           0        1.04       2.478
  YS02001779           JUNCTION      0.01   371.58     0  03:29    0.000141        1.01       1.538
  YS02001882           JUNCTION      0.00    30.93     0  02:39           0      0.0152      17.070
  YS02001884           JUNCTION      0.00    63.30     0  02:39           0      0.0514      13.521
  YS02001759           JUNCTION    359.84   663.65     0  02:55        2.43        4.11       0.561
  YS02001887           JUNCTION    453.35   453.35     0  03:01         2.8        2.83       0.300
  YS02001890           JUNCTION      0.00   453.48     0  03:01           0        2.79       0.328
  YS02001898           JUNCTION      0.00   453.56     0  03:01           0        2.77       0.118
  YS02001901           JUNCTION      0.00   453.50     0  03:01           0        2.77       0.245
  YS02001904           JUNCTION      0.00   453.51     0  03:01           0        2.77       0.226
  YS02001907           JUNCTION      0.00   872.61     0  02:59           0        6.12       0.392
  YS02001910           JUNCTION      0.00   446.96     0  02:54           0        3.37       0.349
  YS02001915           JUNCTION    263.65   446.88     0  02:54        1.96        3.39       0.178
  YS02001918           JUNCTION      0.00   212.17     0  02:54           0        1.44       0.133
  YS02001619           JUNCTION    257.27   257.27     0  03:01        1.95        1.95       0.628
  YS02001629           JUNCTION      0.00   206.95     0  02:49           0        1.63       1.795
  YS02001641           JUNCTION      0.00   437.11     0  02:49           0        3.84       0.549
  YS02001644           JUNCTION    282.70  1076.98     0  03:26        2.25        7.98       0.327
  YS02001652           JUNCTION      0.00   374.76     0  03:02           0        2.05       1.131
  YS02001655           JUNCTION      0.15   374.57     0  03:02     0.00434        2.07       1.223
  YS02001920           JUNCTION      2.87   212.28     0  02:54      0.0809        1.43       0.208
  YS02001923           JUNCTION      0.04   234.14     0  02:54     0.00106        1.34       0.049
  YS02001926           JUNCTION      0.05   186.60     0  02:54     0.00147        1.34       0.248
  YS02001929           JUNCTION    129.40   129.40     0  03:01        1.34        1.34       0.040
  YS02001658           JUNCTION      0.00   639.74     0  02:37           0         2.1       1.007
  YS02001661           JUNCTION      0.00   690.09     0  02:54           0        2.82      -0.314
  YS02001664           JUNCTION    327.80   357.33     0  02:52        2.09        2.81       0.146
  YS02001622           JUNCTION      0.00   257.42     0  03:01           0        1.94       1.667
  YS02001633           JUNCTION    287.40   436.28     0  02:49        2.32         3.9       0.827
  YS02001649           JUNCTION      0.00   930.67     0  02:49           0        4.98       0.752
  YS02001757           JUNCTION      0.00  1770.42     0  02:51           0        9.19       1.013
  YS02001895           JUNCTION      0.00   453.45     0  03:01           0        2.78       0.176
  YS02001625           JUNCTION      0.00   257.42     0  03:01           0         1.9       2.060
  YS02163301           JUNCTION      0.00   207.62     0  02:49           0        1.61       1.504
  YS02163601           JUNCTION      0.11   436.66     0  02:49      0.0031        3.87       0.783
  YS02164001           JUNCTION      0.00   436.64     0  02:49           0        3.84       0.522
  YS02001647           JUNCTION      0.00   662.36     0  02:49           0        3.91       0.720
  YSB1154              JUNCTION     25.19    25.19     0  03:01       0.113       0.114       1.285
  YSB6556              JUNCTION      0.00    24.91     0  03:01           0       0.115       1.100
  YSB1174              JUNCTION     19.06    19.06     0  03:01      0.0821      0.0827       1.580
  YSB1171              JUNCTION      0.00    43.19     0  03:01           0       0.203       3.219
  YS02006553           JUNCTION      0.00   666.90     0  03:17           0         5.9       0.264
  YS02006561           JUNCTION      0.00   964.20     0  03:00           0        8.42       0.011
  YS02006556           JUNCTION      0.00   666.98     0  03:17           0         5.9       0.191
  YS02006558           JUNCTION    392.87   964.58     0  03:01        2.57        8.45       0.061
  YS02001783           JUNCTION      0.00   964.27     0  03:00           0        8.42       0.028
  YS02001784           JUNCTION      1.06   965.23     0  03:00      0.0299        8.44       0.044
  YS02001786           JUNCTION      0.06   965.30     0  03:00     0.00159        8.44       0.041
  YS02001788           JUNCTION      0.07   965.35     0  03:00       0.002        8.44       0.023
  YS02001790           JUNCTION      0.15   965.59     0  03:01     0.00437        8.44       0.030
  YS02001791           JUNCTION      0.00   965.53     0  03:01           0        8.44       0.014
  YS02001793           JUNCTION      0.00   965.61     0  03:01           0        8.44       0.004
  WS02004139           JUNCTION      0.32   285.35     0  01:10     0.00905         6.1       0.535
  WSC                  OUTFALL       0.00   954.86     0  03:05           0          15       0.000
  3                    OUTFALL       0.00   261.57     0  02:50           0        3.52       0.000
  4                    OUTFALL       0.00   217.94     0  02:50           0       0.551       0.000
  5                    OUTFALL       0.00     0.00     0  00:00           0           0       0.000 ltr
  JK-storage           STORAGE       0.00   965.70     0  03:01           0        8.59      -0.319
  CC-storage           STORAGE       0.00  1770.39     0  02:51           0        8.11       0.727
  XR-storage           STORAGE     690.11   690.11     0  03:01        9.61        10.2      -0.001
  
  
  **********************
  Node Surcharge Summary
  **********************
  
  Surcharging occurs when water rises above the top of the highest conduit.
  ---------------------------------------------------------------------
                                               Max. Height   Min. Depth
                                   Hours       Above Crown    Below Rim
  Node                 Type      Surcharged         Meters       Meters
  ---------------------------------------------------------------------
  WS02004404           JUNCTION        0.50          0.055        2.725
  WS02004406           JUNCTION        0.42          0.028        2.422
  WS02004405           JUNCTION        0.47          0.042        2.758
  WS02006109           JUNCTION        2.36          0.288        1.532
  WS02006110           JUNCTION        1.00          0.115        1.735
  WS02006112           JUNCTION        1.09          0.197        1.483
  WS02006230           JUNCTION        0.49          0.079        1.491
  WS02006231           JUNCTION        0.53          0.103        1.427
  WS02006232           JUNCTION        2.52          0.236        1.244
  WS02006234           JUNCTION        0.73          0.141        1.099
  WS02006235           JUNCTION        1.33          0.172        1.118
  WS02006238           JUNCTION        2.01          0.192        1.238
  WS02006240           JUNCTION        0.54          0.125        1.265
  WS02006242           JUNCTION        1.49          0.159        0.661
  WS02006243           JUNCTION        0.32          0.090        0.680
  WS02006245           JUNCTION        0.06          0.018        0.832
  WS02006247           JUNCTION        0.17          0.020        0.740
  WS02006239           JUNCTION        0.66          0.147        1.143
  WS02006252           JUNCTION        2.11          0.193        0.907
  WS02006228           JUNCTION        2.21          0.337        1.863
  YS02001748           JUNCTION        4.95          1.190        0.000
  YS02001751           JUNCTION        5.25          1.199        0.001
  YS02001754           JUNCTION        5.41          1.085        0.065
  YS02001762           JUNCTION        5.64          1.038        0.112
  YS02001765           JUNCTION        5.61          0.990        0.110
  YS02001767           JUNCTION        5.59          0.934        0.096
  YS02001770           JUNCTION        5.57          0.920        0.000
  YS02001774           JUNCTION        5.63          1.008        0.042
  YS02001779           JUNCTION        5.41          0.680        0.000
  YS02001882           JUNCTION        0.79          0.609        0.221
  YS02001884           JUNCTION        0.83          0.648        0.222
  YS02001759           JUNCTION        5.66          1.090        0.120
  YS02001887           JUNCTION        0.92          0.740        0.210
  YS02001890           JUNCTION        0.95          0.759        0.001
  YS02001898           JUNCTION        0.75          0.522        0.218
  YS02001901           JUNCTION        0.88          0.672        0.198
  YS02001904           JUNCTION        0.86          0.636        0.214
  YS02001907           JUNCTION        1.52          0.950        0.000
  YS02001910           JUNCTION        1.00          0.775        0.325
  YS02001915           JUNCTION        0.78          0.586        0.414
  YS02001918           JUNCTION        0.53          0.266        0.544
  YS02001619           JUNCTION        5.24          0.610        0.000
  YS02001629           JUNCTION        5.25          0.470        0.000
  YS02001641           JUNCTION        5.62          0.934        0.166
  YS02001644           JUNCTION        5.62          0.920        0.000
  YS02001652           JUNCTION        5.43          1.130        0.000
  YS02001655           JUNCTION        5.26          1.200        0.000
  YS02001920           JUNCTION        0.56          0.343        0.797
  YS02001658           JUNCTION        5.01          1.300        0.000
  YS02001661           JUNCTION        0.24          1.390        0.000
  YS02001622           JUNCTION        5.28          0.620        0.000
  YS02001633           JUNCTION        5.60          0.925        0.135
  YS02001649           JUNCTION        5.64          1.050        0.000
  YS02001757           JUNCTION        5.74          1.191        0.019
  YS02001895           JUNCTION        0.76          0.556        0.194
  YS02001625           JUNCTION        5.54          0.780        0.000
  YS02163301           JUNCTION        5.58          0.886        0.144
  YS02163601           JUNCTION        5.64          0.988        0.092
  YS02164001           JUNCTION        5.61          0.922        0.178
  YS02001647           JUNCTION        5.48          0.804        0.096
  YS02006553           JUNCTION        1.56          0.964        0.226
  YS02006561           JUNCTION        0.66          0.280        0.870
  YS02006556           JUNCTION        1.20          0.879        0.471
  YS02006558           JUNCTION        1.17          0.859        0.541
  YS02001783           JUNCTION        1.27          0.950        0.650
  YS02001784           JUNCTION        1.36          1.384        0.106
  YS02001786           JUNCTION        1.27          1.113        0.317
  YS02001788           JUNCTION        1.27          1.480        0.000
  YS02001790           JUNCTION        2.66          1.157        0.000
  YS02001791           JUNCTION        2.79          1.014        0.906
  YS02001793           JUNCTION        2.98          1.379        1.221
  
  
  *********************
  Node Flooding Summary
  *********************
  
  Flooding refers to all water that overflows a node, whether it ponds or not.
  --------------------------------------------------------------------------
                                                             Total   Maximum
                                 Maximum   Time of Max       Flood    Ponded
                        Hours       Rate    Occurrence      Volume     Depth
  Node                 Flooded       LPS   days hr:min    10^6 ltr    Meters
  --------------------------------------------------------------------------
  YS02001748              0.01    232.38      0  02:41       0.001     0.000
  YS02001770              0.01      6.12      0  02:40       0.000     0.000
  YS02001779              2.40    371.50      0  03:29       0.987     0.000
  YS02001907              0.38    289.06      0  02:59       0.210     0.000
  YS02001619              0.01     19.01      0  02:38       0.000     0.000
  YS02001629              0.01     24.63      0  02:38       0.000     0.000
  YS02001644              4.03   1076.77      0  03:26       5.945     0.000
  YS02001652              0.01     13.76      0  02:57       0.000     0.000
  YS02001655              0.01     14.32      0  02:36       0.000     0.000
  YS02001658              0.01    256.08      0  02:37       0.000     0.000
  YS02001661              0.01    143.80      0  03:03       0.000     0.000
  YS02001622              0.01     44.01      0  02:36       0.000     0.000
  YS02001649              0.09     48.03      0  03:03       0.004     0.000
  YS02001625              0.83    168.57      0  03:01       0.236     0.000
  YS02001788              0.01     68.73      0  02:37       0.000     0.000
  YS02001790              0.01    122.46      0  02:36       0.000     0.000
  JK-storage              2.35    665.67      0  03:01       2.977     0.000
  XR-storage              4.86    486.57      0  03:20       3.187     0.000
  
  
  **********************
  Storage Volume Summary
  **********************
  
  --------------------------------------------------------------------------------------------------
                         Average     Avg  Evap Exfil       Maximum     Max    Time of Max    Maximum
                          Volume    Pcnt  Pcnt  Pcnt        Volume    Pcnt     Occurrence    Outflow
  Storage Unit           1000 m3    Full  Loss  Loss       1000 m3    Full    days hr:min        LPS
  --------------------------------------------------------------------------------------------------
  JK-storage               0.172      59     0     0         0.291     100       0  02:37     382.88
  CC-storage               2.981      19     0     0         3.890      25       0  03:24     400.00
  XR-storage               0.873      94     0     0         0.926     100       0  02:35     285.00
  
  
  ***********************
  Outfall Loading Summary
  ***********************
  
  -----------------------------------------------------------
                         Flow       Avg       Max       Total
                         Freq      Flow      Flow      Volume
  Outfall Node           Pcnt       LPS       LPS    10^6 ltr
  -----------------------------------------------------------
  WSC                   99.99    610.09    954.86      15.046
  3                     95.43    168.32    261.57       3.517
  4                     34.90     66.65    217.94       0.551
  5                      0.00      0.00      0.00       0.000
  -----------------------------------------------------------
  System                57.58    845.05   1368.83      19.114
  
  
  ********************
  Link Flow Summary
  ********************
  
  -----------------------------------------------------------------------------
                                 Maximum  Time of Max   Maximum    Max/    Max/
                                  |Flow|   Occurrence   |Veloc|    Full    Full
  Link                 Type          LPS  days hr:min     m/sec    Flow   Depth
  -----------------------------------------------------------------------------
  WS02003066WSF200     CONDUIT    660.31     0  03:05      2.84    0.11    0.26
  WS02006287WS02006284 CONDUIT    375.44     0  03:02      1.98    0.17    0.29
  WS02006284WS02006280 CONDUIT    375.55     0  03:02      2.22    0.16    0.27
  WS02006280WS02006229 CONDUIT    375.58     0  03:02      3.58    0.08    0.19
  WS02006229WS02006228 CONDUIT    650.36     0  03:02      1.29    2.15    1.00
  WS02006256WS02006235 CONDUIT    166.25     0  00:01      2.58    1.76    1.00
  WS02006253WS02006251 CONDUIT     84.31     0  03:00      0.46    0.25    1.00
  WS02006252WS02006251 CONDUIT    400.54     0  07:42      3.19    1.47    1.00
  WS02006251WS02006249 CONDUIT    471.33     0  02:50      1.24    1.36    0.97
  WS02006249WS02006248 CONDUIT    354.30     0  06:51      1.16    1.94    0.92
  WS02006248WS02006247 CONDUIT    348.72     0  06:51      1.12    0.76    0.96
  WS02006247WS02006245 CONDUIT    342.63     0  06:51      1.08    2.72    1.00
  WS02006245WS02006243 CONDUIT    335.80     0  06:51      1.09    0.99    1.00
  WS02006243WS02006242 CONDUIT    326.88     0  06:51      0.95    0.70    1.00
  WS02006242WS02006240 CONDUIT    317.17     0  06:52      0.87    1.26    1.00
  WS02006240WS02006239 CONDUIT    314.71     0  07:49      0.86    0.99    1.00
  WS02006239WS02006238 CONDUIT    314.72     0  07:49      0.82    1.01    1.00
  WS02006238WS02006235 CONDUIT    314.72     0  07:49      1.25    0.70    1.00
  WS02006235WS02006234 CONDUIT    388.56     0  05:52      1.03    4.10    1.00
  WS02006234WS02006232 CONDUIT    386.90     0  05:52      1.13    0.78    1.00
  WS02006232WS02006231 CONDUIT    386.78     0  05:52      1.06    0.81    1.00
  WS02006231WS02006230 CONDUIT    384.99     0  05:52      1.35    5.84    1.00
  WS02006230WS02006229 CONDUIT    394.85     0  05:53      1.03    8.79    1.00
  WS02006228WS02006109 CONDUIT    650.36     0  03:02      1.29    2.84    1.00
  WS02006116WS02004401 CONDUIT    661.70     0  03:02      0.85    0.91    0.96
  WS02006115WS02006116 CONDUIT    661.96     0  03:02      0.90    0.85    0.89
  WS02006113WS02006111 CONDUIT    684.56     0  03:02      2.60    0.82    0.53
  WS02006112WS02006115 CONDUIT    664.21     0  03:02      0.87    0.39    0.94
  WS02006111WS02006112 CONDUIT    651.95     0  03:02      1.72    0.31    0.71
  WS02006110WS02006113 CONDUIT    653.53     0  03:01      1.49    0.59    0.82
  WS02006109WS02006110 CONDUIT    651.62     0  03:02      1.30    1.25    1.00
  WS02004411WS02004412 CONDUIT    660.34     0  03:04      1.03    0.94    0.76
  WS02004401WS02004402 CONDUIT    661.33     0  03:02      0.85    0.79    0.98
  WS02004413WS02003067 CONDUIT    660.18     0  03:04      1.25    0.28    0.64
  WS02004412WS02004413 CONDUIT    660.26     0  03:04      0.94    0.44    0.84
  WS02004410WS02004411 CONDUIT    660.48     0  03:04      1.03    0.90    0.76
  WS02004409WS02004410 CONDUIT    660.69     0  03:03      1.04    0.85    0.76
  WS02004407WS02004409 CONDUIT    660.90     0  03:03      1.53    0.23    0.54
  WS02004406WS02004407 CONDUIT    661.05     0  03:03      1.19    0.30    0.66
  WS02004405WS02004406 CONDUIT    660.97     0  03:03      0.84    1.30    1.00
  WS02004404WS02004405 CONDUIT    660.91     0  03:03      0.84    6.48    1.00
  WS02004403WS02004404 CONDUIT    660.72     0  03:03      0.84    0.48    1.00
  WS02004402WS02004403 CONDUIT    660.73     0  03:02      0.84    0.95    0.99
  WS02004139WS02001211 CONDUIT    285.67     0  03:50      0.69    0.36    0.54
  WS02004138WS02004139 CONDUIT    285.03     0  01:10      2.94    0.06    0.39
  WS02003067WS02003066 CONDUIT    660.26     0  03:05      1.35    0.21    0.45
  WS02001213WS02003059 CONDUIT    296.17     0  03:51      0.65    0.49    0.75
  WS02001212WS02001213 CONDUIT    294.46     0  03:50      1.19    0.45    0.43
  WS02001211WS02001212 CONDUIT    293.62     0  03:50      0.67    0.22    0.59
  WS02003072WS02003073 CONDUIT    952.99     0  03:04      1.73    2.06    0.49
  WS02003069WS02003072 CONDUIT    952.98     0  03:04      1.63    0.46    0.51
  WS02003060WS02003069 CONDUIT    952.94     0  03:03      1.87    0.37    0.46
  WS02003059WS02003060 CONDUIT    298.71     0  03:51      0.82    0.20    0.65
  HS02004901HS02004770 CONDUIT     17.71     0  03:01      0.07    0.07    0.39
  HS02004876HS02004881 CONDUIT     71.90     0  03:01      0.92    0.76    0.11
  HS02004870HS02004876 CONDUIT     58.03     0  03:01      0.63    0.04    0.13
  HS02004842HS02004848 CONDUIT     11.42     0  03:01      0.05    0.01    0.30
  HS02004837HS02004842 CONDUIT     11.94     0  03:02      0.41    0.01    0.32
  HS02004830HS02004837 CONDUIT     41.69     0  03:01      0.56    0.04    0.11
  HS02004824HS02004830 CONDUIT     41.67     0  03:01      0.58    0.05    0.10
  HS02004817HS02004824 CONDUIT     81.58     0  03:01      0.25    0.04    0.47
  HS02004770HS02004777 CONDUIT     90.21     0  03:01      0.32    0.16    0.41
  HS02004799HS02004480 CONDUIT    226.98     0  03:01      0.78    0.29    0.42
  HS02004792HS02004799 CONDUIT    206.60     0  03:01      0.88    0.13    0.33
  HS02004788HS02004792 CONDUIT    118.94     0  03:01      1.01    0.08    0.17
  HS02004785HS02004788 CONDUIT     89.52     0  03:02      0.66    0.67    0.19
  HS02004777HS02004785 CONDUIT     89.64     0  03:01      0.38    0.11    0.33
  HS02004480HS02004478 CONDUIT    269.12     0  03:01      1.20    1.13    0.32
  HS02004479HS02004480 CONDUIT     44.17     0  03:02      0.23    0.04    0.40
  HS02004862HS02004870 CONDUIT     44.23     0  03:01      0.64    0.05    0.10
  HS02004848HS02004852 CONDUIT     20.44     0  03:01      0.44    0.02    0.07
  HS02004856HS02004862 CONDUIT     30.57     0  03:01      0.47    0.03    0.09
  HS02004852HS02004856 CONDUIT     20.26     0  03:01      0.24    0.02    0.12
  HS02004802HS02004478 CONDUIT    106.59     0  03:02      0.45    0.09    0.35
  HS02004478WS02006287 CONDUIT    375.27     0  03:01      1.68    0.11    0.25
  HS02004817HS02004807 CONDUIT     82.18     0  03:01      0.19    0.05    0.62
  HS02004807HS02004802 CONDUIT    106.49     0  03:01      0.38    0.20    0.40
  YS02001759YS02001757 CONDUIT    663.65     0  02:55      0.84    0.47    1.00
  YS02001762YS02001759 CONDUIT    336.16     0  02:55      0.43    0.39    1.00
  YS02001765YS02001762 CONDUIT    336.38     0  02:55      0.43    0.32    1.00
  YS02001770YS02001767 CONDUIT    335.63     0  02:55      0.43    1.33    1.00
  YS02001774YS02001770 CONDUIT    371.26     0  03:29      0.47    0.24    1.00
  YS02001779YS02001774 CONDUIT    371.58     0  03:29      0.47    0.19    1.00
  YS02001649YS02001757 CONDUIT    930.60     0  02:49      1.18    0.56    1.00
  YS02001767YS02001765 CONDUIT    336.16     0  02:55      0.43    0.42    1.00
  YS02006561YS02001783 CONDUIT    964.27     0  03:00      2.10    0.50    1.00
  YS02001783YS02001784 CONDUIT    964.17     0  03:00      1.92    1.33    1.00
  YS02001784YS02001785 CONDUIT    965.24     0  03:00      1.92    2.25    1.00
  YS02001788YS02001790 CONDUIT    965.43     0  03:01      2.31    0.71    1.00
  YS02001790YS02001791 CONDUIT    965.53     0  03:01      2.81    1.05    1.00
  YS02001791YS02001793 CONDUIT    965.61     0  03:01      5.50    0.41    1.00
  YS02001910YS02001907 CONDUIT    446.91     0  02:54      0.57    0.25    1.00
  YS02001786YS02001788 CONDUIT    965.28     0  03:00      2.21    1.86    1.00
  YS02001915YS02001910 CONDUIT    446.96     0  02:54      0.57    0.22    1.00
  YS02001918YS02001915 CONDUIT    212.73     0  02:54      0.44    0.12    1.00
  YS02001923YS02001920 CONDUIT    209.41     0  02:54      0.68    0.09    1.00
  YS02001926YS02001923 CONDUIT    234.10     0  02:54      0.79    0.33    0.89
  YS02001929YS02001926 CONDUIT    186.55     0  02:54      0.84    0.09    0.80
  YS02001920YS02001918 CONDUIT    212.17     0  02:54      0.67    0.21    1.00
  YS02001629YS02163301 CONDUIT    207.62     0  02:49      0.26    0.26    1.00
  YS02001619YS02001622 CONDUIT    257.42     0  03:01      0.61    0.38    1.00
  YS02001622YS02001625 CONDUIT    257.42     0  03:01      0.33    0.14    1.00
  YS02001625YS02001629 CONDUIT    206.95     0  02:49      0.26    0.10    1.00
  YS02163301YS02001633 CONDUIT    207.89     0  02:49      0.26    0.20    1.00
  YS02163601YS02164001 CONDUIT    436.64     0  02:49      0.56    0.39    1.00
  YS02164001YS02001641 CONDUIT    437.11     0  02:49      0.56    0.60    1.00
  YS02001641YS02001644 CONDUIT    437.21     0  02:49      0.56    1.41    1.00
  YS02001647YS02001649 CONDUIT    662.67     0  02:49      0.84    0.35    1.00
  YS02006553YS02006556 CONDUIT    666.98     0  03:17      0.85    0.57    1.00
  YS02006556YS02006558 CONDUIT    667.49     0  03:17      0.85    0.53    1.00
  YSB6556YSB1171       CONDUIT     24.81     0  03:03      0.09    0.03    0.67
  YS02001907YS02006553 CONDUIT    666.90     0  03:17      0.74    0.78    1.00
  YS02006558YS02006561 CONDUIT    964.20     0  03:00      3.41    2.13    1.00
  YS02001633YS02163601 CONDUIT    436.55     0  02:49      0.56    0.46    1.00
  YS02001644YS02001647 CONDUIT    662.36     0  02:49      0.84    0.39    1.00
  YS02001745YS02001748 CONDUIT    606.48     0  02:40      1.48    0.23    0.94
  YS02001748YS02001751 CONDUIT    344.10     0  02:31      1.05    0.17    1.00
  YS02001751YS02001754 CONDUIT    308.18     0  03:01      0.88    0.15    1.00
  YS02001754YS02001757 CONDUIT    308.29     0  03:01      0.39    0.12    1.00
  YS02001882YS02001884 CONDUIT     30.93     0  02:39      0.09    0.04    1.00
  YS02001884YS02001887 CONDUIT     63.30     0  02:39      0.09    0.08    1.00
  YS02001890YS02001895 CONDUIT    453.45     0  03:01      0.58    0.21    1.00
  YS02001895YS02001898 CONDUIT    453.56     0  03:01      0.58    0.79    1.00
  YS02001898YS02001901 CONDUIT    453.50     0  03:01      0.58    0.29    1.00
  YS02001901YS02001904 CONDUIT    453.51     0  03:01      0.58    0.70    1.00
  YS02001904YS02001907 CONDUIT    453.58     0  03:01      0.58    0.16    1.00
  YS02001887YS02001890 CONDUIT    453.48     0  03:01      0.58    0.78    1.00
  YS02001652YS02001649 CONDUIT    374.66     0  03:02      0.50    0.19    1.00
  YS02001655YS02001652 CONDUIT    374.76     0  03:02      0.93    0.18    1.00
  YS02001658YS02001655 CONDUIT    374.41     0  03:02      1.21    0.16    1.00
  YS02001661YS02001658 CONDUIT    639.74     0  02:37      1.56    0.25    1.00
  YS02001664YS02001661 CONDUIT    690.09     0  02:54      1.51    0.22    0.72
  YSB1154YSB6556       CONDUIT     24.91     0  03:01      0.18    0.04    0.56
  YSB1174YSB1171       CONDUIT     18.78     0  03:01      0.07    0.03    0.68
  YSB1171HS02004479    CONDUIT     42.82     0  03:02      0.54    0.03    0.53
  HS02004881HS02006253 CONDUIT     79.15     0  03:01      1.96    0.02    0.30
  YS02001793JiankangQianchi CONDUIT    965.70     0  03:01     13.02    0.08    1.00
  YS02001757CaochengTiaoxuchi CONDUIT   1770.39     0  02:51      2.35    0.78    1.00
  WSF200WS02003060     CONDUIT    660.78     0  03:05      1.85    0.15    0.36
  1                    CONDUIT    954.86     0  03:05      3.29    0.33    0.40
  2                    CONDUIT    217.94     0  02:50      5.96    0.52    0.51
  3                    CONDUIT    261.57     0  02:50      8.42    0.42    0.46
  4                    CONDUIT      0.00     0  00:00      0.00    0.00    0.00
  CC-Pump-1            PUMP       200.00     0  02:40              1.00
  CC-Pump-2            PUMP       200.00     0  02:40              1.00
  JK-Pump-1            PUMP         0.00     0  00:00              0.00
  JK-Pump-2            PUMP       300.00     0  00:00              1.00
  XR-Pump-1            PUMP        95.00     0  00:00              1.00
  XR-Pump-2            PUMP        95.00     0  00:00              1.00
  XR-Pump-3            PUMP         0.00     0  00:00              0.00
  XR-Pump-4            PUMP        95.00     0  00:20              1.00
  
  
  ***************************
  Flow Classification Summary
  ***************************
  
  -------------------------------------------------------------------------------------
                      Adjusted    ---------- Fraction of Time in Flow Class ---------- 
                       /Actual         Up    Down  Sub   Sup   Up    Down  Norm  Inlet 
  Conduit               Length    Dry  Dry   Dry   Crit  Crit  Crit  Crit  Ltd   Ctrl  
  -------------------------------------------------------------------------------------
  WS02003066WSF200        1.00   0.06  0.00  0.00  0.00  0.94  0.00  0.00  0.63  0.00
  WS02006287WS02006284    1.00   0.04  0.01  0.00  0.59  0.36  0.00  0.00  0.65  0.00
  WS02006284WS02006280    1.00   0.04  0.00  0.00  0.00  0.00  0.00  0.96  0.00  0.00
  WS02006280WS02006229    1.00   0.04  0.00  0.00  0.00  0.00  0.00  0.96  0.00  0.00
  WS02006229WS02006228    1.00   0.00  0.00  0.00  0.99  0.00  0.00  0.01  0.00  0.00
  WS02006256WS02006235    1.00   0.00  0.00  0.00  1.00  0.00  0.00  0.00  0.00  0.00
  WS02006253WS02006251    1.00   0.03  0.01  0.00  0.96  0.00  0.00  0.00  0.00  0.00
  WS02006252WS02006251    1.00   0.07  0.00  0.00  0.00  0.00  0.93  0.00  0.00  0.00
  WS02006251WS02006249    1.00   0.00  0.00  0.00  1.00  0.00  0.00  0.00  0.23  0.00
  WS02006249WS02006248    1.00   0.00  0.02  0.00  0.92  0.00  0.06  0.00  0.00  0.00
  WS02006248WS02006247    1.00   0.02  0.00  0.00  0.98  0.00  0.00  0.00  0.11  0.00
  WS02006247WS02006245    1.00   0.02  0.00  0.00  0.98  0.00  0.00  0.00  0.00  0.00
  WS02006245WS02006243    1.00   0.01  0.00  0.00  0.95  0.00  0.00  0.03  0.01  0.00
  WS02006243WS02006242    1.00   0.01  0.00  0.00  0.99  0.00  0.00  0.00  0.21  0.00
  WS02006242WS02006240    1.00   0.00  0.00  0.00  1.00  0.00  0.00  0.00  0.00  0.00
  WS02006240WS02006239    1.00   0.00  0.00  0.00  0.96  0.00  0.00  0.03  0.01  0.00
  WS02006239WS02006238    1.00   0.00  0.00  0.00  1.00  0.00  0.00  0.00  0.02  0.00
  WS02006238WS02006235    1.00   0.00  0.00  0.00  1.00  0.00  0.00  0.00  0.00  0.00
  WS02006235WS02006234    1.00   0.00  0.00  0.00  0.96  0.00  0.04  0.00  0.00  0.00
  WS02006234WS02006232    1.00   0.00  0.00  0.00  1.00  0.00  0.00  0.00  0.11  0.00
  WS02006232WS02006231    1.00   0.00  0.00  0.00  0.99  0.00  0.00  0.00  0.00  0.00
  WS02006231WS02006230    1.00   0.00  0.00  0.00  0.77  0.00  0.23  0.00  0.00  0.00
  WS02006230WS02006229    1.00   0.00  0.00  0.00  0.99  0.00  0.00  0.01  0.01  0.00
  WS02006228WS02006109    1.00   0.00  0.00  0.00  1.00  0.00  0.00  0.00  0.00  0.00
  WS02006116WS02004401    1.00   0.02  0.00  0.00  0.98  0.00  0.00  0.00  0.00  0.00
  WS02006115WS02006116    1.00   0.02  0.00  0.00  0.97  0.00  0.00  0.01  0.00  0.00
  WS02006113WS02006111    1.00   0.02  0.00  0.00  0.00  0.98  0.00  0.00  0.10  0.00
  WS02006112WS02006115    1.00   0.02  0.00  0.00  0.97  0.00  0.00  0.00  0.00  0.00
  WS02006111WS02006112    1.00   0.02  0.00  0.00  0.98  0.00  0.00  0.00  0.92  0.00
  WS02006110WS02006113    1.00   0.01  0.01  0.00  0.98  0.00  0.00  0.00  0.00  0.00
  WS02006109WS02006110    1.00   0.00  0.01  0.00  0.98  0.00  0.01  0.00  0.00  0.00
  WS02004411WS02004412    1.00   0.04  0.00  0.00  0.96  0.00  0.00  0.00  0.00  0.00
  WS02004401WS02004402    1.00   0.03  0.00  0.00  0.97  0.00  0.00  0.00  0.00  0.00
  WS02004413WS02003067    1.00   0.04  0.01  0.00  0.00  0.00  0.95  0.00  0.00  0.00
  WS02004412WS02004413    1.00   0.04  0.00  0.00  0.96  0.00  0.00  0.00  0.03  0.00
  WS02004410WS02004411    1.00   0.04  0.00  0.00  0.96  0.00  0.00  0.00  0.04  0.00
  WS02004409WS02004410    1.00   0.04  0.00  0.00  0.96  0.00  0.00  0.00  0.03  0.00
  WS02004407WS02004409    1.00   0.04  0.00  0.00  0.96  0.00  0.00  0.00  0.89  0.00
  WS02004406WS02004407    1.00   0.00  0.04  0.00  0.96  0.00  0.00  0.00  0.00  0.00
  WS02004405WS02004406    1.00   0.00  0.00  0.00  1.00  0.00  0.00  0.00  0.01  0.00
  WS02004404WS02004405    1.00   0.00  0.00  0.00  1.00  0.00  0.00  0.00  0.00  0.00
  WS02004403WS02004404    1.00   0.00  0.03  0.00  0.97  0.00  0.00  0.00  0.01  0.00
  WS02004402WS02004403    1.00   0.03  0.00  0.00  0.97  0.00  0.00  0.00  0.00  0.00
  WS02004139WS02001211    1.00   0.00  0.00  0.00  1.00  0.00  0.00  0.00  0.00  0.00
  WS02004138WS02004139    1.00   0.00  0.00  0.00  0.99  0.01  0.00  0.00  1.00  0.00
  WS02003067WS02003066    1.00   0.05  0.01  0.00  0.94  0.00  0.00  0.00  0.00  0.00
  WS02001213WS02003059    1.00   0.00  0.00  0.00  0.99  0.00  0.00  0.00  0.00  0.00
  WS02001212WS02001213    1.00   0.00  0.00  0.00  0.91  0.00  0.08  0.00  0.00  0.00
  WS02001211WS02001212    1.00   0.00  0.00  0.00  1.00  0.00  0.00  0.00  0.00  0.00
  WS02003072WS02003073    1.00   0.00  0.00  0.00  0.00  0.00  0.00  1.00  0.00  0.00
  WS02003069WS02003072    1.00   0.00  0.00  0.00  0.99  0.01  0.00  0.00  0.21  0.00
  WS02003060WS02003069    1.00   0.00  0.00  0.00  0.99  0.01  0.00  0.00  0.07  0.00
  WS02003059WS02003060    1.00   0.00  0.00  0.00  1.00  0.00  0.00  0.00  0.01  0.00
  HS02004901HS02004770    1.00   0.04  0.00  0.00  0.96  0.00  0.00  0.00  0.00  0.00
  HS02004876HS02004881    1.00   0.02  0.00  0.00  0.89  0.09  0.00  0.00  0.00  0.00
  HS02004870HS02004876    1.00   0.01  0.00  0.00  0.99  0.00  0.00  0.00  0.95  0.00
  HS02004842HS02004848    1.00   0.00  0.04  0.00  0.96  0.00  0.00  0.00  0.58  0.00
  HS02004837HS02004842    1.00   0.00  0.00  0.00  0.99  0.01  0.00  0.00  0.11  0.00
  HS02004830HS02004837    1.00   0.00  0.00  0.00  1.00  0.00  0.00  0.00  0.99  0.00
  HS02004824HS02004830    1.00   0.00  0.00  0.00  1.00  0.00  0.00  0.00  0.00  0.00
  HS02004817HS02004824    1.00   0.00  0.00  0.00  1.00  0.00  0.00  0.00  1.00  0.00
  HS02004770HS02004777    1.00   0.00  0.04  0.00  0.96  0.00  0.00  0.00  0.03  0.00
  HS02004799HS02004480    1.00   0.00  0.02  0.00  0.95  0.00  0.02  0.00  0.00  0.00
  HS02004792HS02004799    1.00   0.00  0.00  0.00  0.99  0.01  0.00  0.00  0.98  0.00
  HS02004788HS02004792    1.00   0.00  0.00  0.00  0.99  0.01  0.00  0.00  0.98  0.00
  HS02004785HS02004788    1.00   0.00  0.00  0.00  1.00  0.00  0.00  0.00  0.00  0.00
  HS02004777HS02004785    1.00   0.00  0.00  0.00  1.00  0.00  0.00  0.00  0.14  0.00
  HS02004480HS02004478    1.00   0.04  0.00  0.00  0.66  0.00  0.00  0.30  0.00  0.00
  HS02004479HS02004480    1.00   0.03  0.00  0.00  0.97  0.00  0.00  0.00  0.12  0.00
  HS02004862HS02004870    1.00   0.00  0.00  0.00  1.00  0.00  0.00  0.00  0.05  0.00
  HS02004848HS02004852    1.00   0.04  0.00  0.00  0.96  0.00  0.00  0.00  0.61  0.00
  HS02004856HS02004862    1.00   0.00  0.05  0.00  0.95  0.00  0.00  0.00  0.80  0.00
  HS02004852HS02004856    1.00   0.04  0.00  0.00  0.95  0.00  0.00  0.00  0.85  0.00
  HS02004802HS02004478    1.00   0.04  0.00  0.00  0.95  0.00  0.00  0.00  0.03  0.00
  HS02004478WS02006287    1.00   0.05  0.00  0.00  0.72  0.23  0.00  0.00  0.66  0.00
  HS02004817HS02004807    1.00   0.00  0.04  0.00  0.96  0.00  0.00  0.00  0.01  0.00
  HS02004807HS02004802    1.00   0.04  0.00  0.00  0.95  0.00  0.00  0.00  0.00  0.00
  YS02001759YS02001757    1.00   0.00  0.00  0.00  1.00  0.00  0.00  0.00  0.16  0.00
  YS02001762YS02001759    1.00   0.00  0.00  0.00  1.00  0.00  0.00  0.00  0.04  0.00
  YS02001765YS02001762    1.00   0.00  0.00  0.00  1.00  0.00  0.00  0.00  0.16  0.00
  YS02001770YS02001767    1.00   0.00  0.00  0.00  1.00  0.00  0.00  0.00  0.00  0.00
  YS02001774YS02001770    1.00   0.00  0.04  0.00  0.96  0.00  0.00  0.00  0.04  0.00
  YS02001779YS02001774    1.00   0.00  0.00  0.00  1.00  0.00  0.00  0.00  0.21  0.00
  YS02001649YS02001757    1.00   0.00  0.00  0.00  1.00  0.00  0.00  0.00  0.17  0.00
  YS02001767YS02001765    1.00   0.00  0.00  0.00  1.00  0.00  0.00  0.00  0.00  0.00
  YS02006561YS02001783    1.00   0.06  0.00  0.00  0.45  0.50  0.00  0.00  0.56  0.00
  YS02001783YS02001784    1.00   0.00  0.06  0.00  0.94  0.00  0.00  0.00  0.01  0.00
  YS02001784YS02001785    1.00   0.00  0.00  0.00  1.00  0.00  0.00  0.00  0.20  0.00
  YS02001788YS02001790    1.00   0.00  0.00  0.00  0.55  0.45  0.00  0.00  0.50  0.00
  YS02001790YS02001791    1.00   0.00  0.00  0.00  0.52  0.48  0.00  0.00  0.37  0.00
  YS02001791YS02001793    1.00   0.00  0.00  0.00  0.53  0.47  0.00  0.00  0.02  0.00
  YS02001910YS02001907    1.00   0.00  0.00  0.00  0.97  0.00  0.00  0.02  0.13  0.00
  YS02001786YS02001788    1.00   0.00  0.00  0.00  0.52  0.48  0.00  0.00  0.00  0.00
  YS02001915YS02001910    1.00   0.00  0.00  0.00  0.99  0.01  0.00  0.00  0.18  0.00
  YS02001918YS02001915    1.00   0.00  0.01  0.00  0.98  0.01  0.00  0.00  0.58  0.00
  YS02001923YS02001920    1.00   0.00  0.00  0.00  1.00  0.00  0.00  0.00  0.85  0.00
  YS02001926YS02001923    1.00   0.00  0.03  0.00  0.14  0.00  0.83  0.00  0.00  0.00
  YS02001929YS02001926    1.00   0.00  0.04  0.00  0.96  0.00  0.00  0.00  0.78  0.00
  YS02001920YS02001918    1.00   0.00  0.01  0.00  0.99  0.00  0.00  0.00  0.00  0.00
  YS02001629YS02163301    1.00   0.05  0.00  0.00  0.95  0.00  0.00  0.00  0.00  0.00
  YS02001619YS02001622    1.00   0.04  0.00  0.00  0.96  0.00  0.00  0.00  0.00  0.00
  YS02001622YS02001625    1.00   0.04  0.00  0.00  0.96  0.00  0.00  0.00  0.07  0.00
  YS02001625YS02001629    1.00   0.04  0.01  0.00  0.93  0.00  0.01  0.00  0.00  0.00
  YS02163301YS02001633    1.00   0.00  0.05  0.00  0.95  0.00  0.00  0.00  0.00  0.00
  YS02163601YS02164001    1.00   0.00  0.03  0.00  0.97  0.00  0.00  0.00  0.00  0.00
  YS02164001YS02001641    1.00   0.01  0.03  0.00  0.97  0.00  0.00  0.00  0.06  0.00
  YS02001641YS02001644    1.00   0.00  0.01  0.00  0.99  0.00  0.00  0.00  0.00  0.00
  YS02001647YS02001649    1.00   0.00  0.05  0.00  0.94  0.00  0.00  0.00  0.01  0.00
  YS02006553YS02006556    1.00   0.01  0.00  0.00  0.99  0.00  0.00  0.00  0.03  0.00
  YS02006556YS02006558    1.00   0.00  0.00  0.00  1.00  0.00  0.00  0.00  0.00  0.00
  YSB6556YSB1171          1.00   0.03  0.01  0.00  0.96  0.00  0.00  0.00  0.00  0.00
  YS02001907YS02006553    1.00   0.00  0.02  0.00  0.98  0.00  0.00  0.00  0.00  0.00
  YS02006558YS02006561    1.00   0.06  0.00  0.00  0.18  0.76  0.00  0.00  0.48  0.00
  YS02001633YS02163601    1.00   0.00  0.01  0.00  0.99  0.00  0.00  0.00  0.16  0.00
  YS02001644YS02001647    1.00   0.00  0.06  0.00  0.94  0.00  0.00  0.00  0.00  0.00
  YS02001745YS02001748    1.00   0.00  0.00  0.00  0.89  0.01  0.00  0.10  0.04  0.00
  YS02001748YS02001751    1.00   0.00  0.00  0.00  0.98  0.02  0.00  0.00  0.15  0.00
  YS02001751YS02001754    1.00   0.00  0.00  0.00  0.94  0.00  0.00  0.06  0.02  0.00
  YS02001754YS02001757    1.00   0.00  0.00  0.00  0.99  0.01  0.00  0.00  0.20  0.00
  YS02001882YS02001884    1.00   0.05  0.00  0.00  0.95  0.00  0.00  0.00  0.00  0.00
  YS02001884YS02001887    1.00   0.03  0.01  0.00  0.96  0.00  0.00  0.00  0.00  0.00
  YS02001890YS02001895    1.00   0.00  0.05  0.00  0.95  0.00  0.00  0.00  0.00  0.00
  YS02001895YS02001898    1.00   0.05  0.00  0.00  0.94  0.00  0.01  0.00  0.00  0.00
  YS02001898YS02001901    1.00   0.05  0.00  0.00  0.95  0.00  0.00  0.00  0.02  0.00
  YS02001901YS02001904    1.00   0.05  0.00  0.00  0.95  0.00  0.00  0.00  0.00  0.00
  YS02001904YS02001907    1.00   0.00  0.05  0.00  0.95  0.00  0.00  0.00  0.00  0.00
  YS02001887YS02001890    1.00   0.00  0.00  0.00  0.97  0.00  0.02  0.00  0.00  0.00
  YS02001652YS02001649    1.00   0.00  0.00  0.00  1.00  0.00  0.00  0.00  0.18  0.00
  YS02001655YS02001652    1.00   0.00  0.00  0.00  0.94  0.00  0.00  0.06  0.02  0.00
  YS02001658YS02001655    1.00   0.00  0.05  0.00  0.93  0.02  0.00  0.00  0.11  0.00
  YS02001661YS02001658    1.00   0.05  0.00  0.00  0.89  0.06  0.00  0.00  0.06  0.00
  YS02001664YS02001661    1.00   0.04  0.00  0.00  0.88  0.08  0.00  0.00  0.22  0.00
  YSB1154YSB6556          1.00   0.04  0.00  0.00  0.96  0.00  0.00  0.00  0.02  0.00
  YSB1174YSB1171          1.00   0.03  0.01  0.00  0.96  0.00  0.00  0.00  0.00  0.00
  YSB1171HS02004479       1.00   0.03  0.00  0.00  0.97  0.00  0.00  0.00  0.11  0.00
  HS02004881HS02006253    1.00   0.03  0.00  0.00  0.78  0.04  0.00  0.16  0.65  0.00
  YS02001793JiankangQianchi    1.00   0.00  0.00  0.00  0.70  0.30  0.00  0.00  0.13  0.00
  YS02001757CaochengTiaoxuchi    1.00   0.00  0.07  0.00  0.93  0.00  0.00  0.00  0.00  0.00
  WSF200WS02003060        1.00   0.00  0.06  0.00  0.54  0.40  0.00  0.00  0.08  0.00
  1                       1.00   0.00  0.00  0.00  0.00  1.00  0.00  0.00  0.33  0.00
  2                       1.00   0.65  0.00  0.00  0.00  0.35  0.00  0.00  0.07  0.00
  3                       1.00   0.05  0.00  0.00  0.00  0.95  0.00  0.00  0.22  0.00
  4                       1.00   1.00  0.00  0.00  0.00  0.00  0.00  0.00  0.00  0.00
  
  
  *************************
  Conduit Surcharge Summary
  *************************
  
  ----------------------------------------------------------------------------
                                                           Hours        Hours 
                         --------- Hours Full --------   Above Full   Capacity
  Conduit                Both Ends  Upstream  Dnstream   Normal Flow   Limited
  ----------------------------------------------------------------------------
  WS02006229WS02006228        2.21      2.52      2.21      5.49         2.21
  WS02006256WS02006235        6.09      6.09      6.78      3.51         0.01
  WS02006253WS02006251        0.01      0.01      0.20      0.01         0.01
  WS02006252WS02006251        1.29      1.29      2.11      1.90         0.01
  WS02006251WS02006249        0.01      0.08      0.01      1.33         0.01
  WS02006249WS02006248        0.01      0.01      0.01      4.77         0.01
  WS02006248WS02006247        0.01      0.01      0.17      0.01         0.01
  WS02006247WS02006245        0.06      0.22      0.06      5.17         0.06
  WS02006245WS02006243        0.21      0.21      0.32      0.01         0.01
  WS02006243WS02006242        0.35      0.35      1.49      0.01         0.01
  WS02006242WS02006240        0.54      0.54      1.93      1.89         0.01
  WS02006240WS02006239        0.56      0.56      0.66      0.01         0.01
  WS02006239WS02006238        1.85      1.85      2.01      0.56         0.57
  WS02006238WS02006235        1.86      1.86      2.33      0.01         0.01
  WS02006235WS02006234        0.73      0.73      1.33      6.11         0.01
  WS02006234WS02006232        0.82      0.82      2.52      0.01         0.01
  WS02006232WS02006231        0.53      0.53      2.52      0.01         0.01
  WS02006231WS02006230        0.49      0.49      0.61      6.12         0.01
  WS02006230WS02006229        3.50      5.29      3.50      6.22         3.50
  WS02006228WS02006109        2.36      2.95      2.36      5.87         2.36
  WS02006112WS02006115        0.01      0.01      1.09      0.01         0.01
  WS02006111WS02006112        0.01      0.01      5.53      0.01         0.01
  WS02006110WS02006113        0.01      0.01      2.73      0.01         0.01
  WS02006109WS02006110        1.00      1.00      2.94      1.00         0.01
  WS02004406WS02004407        0.01      0.01      0.42      0.01         0.01
  WS02004405WS02004406        0.42      0.47      0.42      1.05         0.42
  WS02004404WS02004405        0.47      0.50      0.47      6.00         0.47
  WS02004403WS02004404        0.01      0.01      0.50      0.01         0.01
  WS02003072WS02003073        0.01      0.01      0.01      5.69         0.01
  HS02004480HS02004478        0.01      0.01      0.01      0.25         0.01
  YS02001759YS02001757        5.66      5.66      5.74      0.01         0.01
  YS02001762YS02001759        5.64      5.64      5.66      0.01         0.01
  YS02001765YS02001762        5.61      5.61      5.64      0.01         0.01
  YS02001770YS02001767        5.58      5.58      5.59      0.32         0.81
  YS02001774YS02001770        5.57      5.57      5.63      0.01         0.01
  YS02001779YS02001774        5.41      5.41      5.63      0.01         0.01
  YS02001649YS02001757        5.64      5.64      5.74      0.01         0.01
  YS02001767YS02001765        5.59      5.59      5.61      0.01         0.01
  YS02006561YS02001783        0.66      0.66      1.27      0.01         0.01
  YS02001783YS02001784        1.27      1.27      1.36      1.10         1.02
  YS02001784YS02001785        1.27      1.36      1.27      2.07         1.27
  YS02001788YS02001790        1.27      1.27      2.66      0.01         0.01
  YS02001790YS02001791        2.66      2.66      2.79      0.49         0.49
  YS02001791YS02001793        2.79      2.79      3.06      0.01         0.01
  YS02001910YS02001907        1.00      1.00      1.52      0.01         0.01
  YS02001786YS02001788        1.27      1.27      1.27      1.68         1.26
  YS02001915YS02001910        0.78      0.78      1.00      0.01         0.01
  YS02001918YS02001915        0.53      0.53      0.78      0.01         0.01
  YS02001923YS02001920        0.29      0.29      0.56      0.01         0.01
  YS02001920YS02001918        0.53      0.53      0.56      0.01         0.01
  YS02001629YS02163301        5.57      5.57      5.58      0.01         0.01
  YS02001619YS02001622        5.24      5.24      5.28      0.01         0.01
  YS02001622YS02001625        5.28      5.28      5.54      0.01         0.01
  YS02001625YS02001629        5.25      5.25      5.54      0.01         0.01
  YS02163301YS02001633        5.58      5.58      5.61      0.01         0.01
  YS02163601YS02164001        5.61      5.61      5.64      0.01         0.01
  YS02164001YS02001641        5.61      5.61      5.62      0.01         0.02
  YS02001641YS02001644        5.62      5.62      5.62      1.21         1.39
  YS02001647YS02001649        5.48      5.48      5.64      0.01         0.01
  YS02006553YS02006556        1.20      1.20      1.56      0.01         0.01
  YS02006556YS02006558        1.37      1.37      1.64      0.01         0.01
  YS02001907YS02006553        2.09      2.09      2.30      0.01         0.01
  YS02006558YS02006561        0.89      1.17      0.89      1.94         0.89
  YS02001633YS02163601        5.60      5.60      5.64      0.01         0.01
  YS02001644YS02001647        5.48      5.48      5.62      0.01         0.01
  YS02001745YS02001748        0.01      0.01      4.95      0.01         0.01
  YS02001748YS02001751        5.12      5.12      5.25      0.01         0.01
  YS02001751YS02001754        5.25      5.25      5.41      0.01         0.01
  YS02001754YS02001757        5.44      5.44      5.74      0.01         0.01
  YS02001882YS02001884        0.79      0.79      0.83      0.01         0.01
  YS02001884YS02001887        0.89      0.89      0.92      0.01         0.01
  YS02001890YS02001895        0.76      0.76      1.02      0.01         0.01
  YS02001895YS02001898        0.75      0.75      0.76      0.01         0.01
  YS02001898YS02001901        0.78      0.78      0.88      0.01         0.01
  YS02001901YS02001904        0.86      0.86      0.88      0.01         0.01
  YS02001904YS02001907        0.86      0.86      1.59      0.01         0.01
  YS02001887YS02001890        0.95      0.95      0.98      0.01         0.01
  YS02001652YS02001649        5.50      5.50      5.64      0.01         0.01
  YS02001655YS02001652        5.25      5.25      5.43      0.01         0.01
  YS02001658YS02001655        5.00      5.00      5.26      0.01         0.01
  YS02001661YS02001658        0.22      0.22      5.00      0.01         0.01
  YS02001664YS02001661        0.01      0.01      1.19      0.01         0.01
  YS02001793JiankangQianchi        2.98      2.98      3.99      0.01         0.01
  YS02001757CaochengTiaoxuchi        4.89      4.89      5.74      0.01         0.01
  
  
  ***************
  Pumping Summary
  ***************
  
  ---------------------------------------------------------------------------------------------------------
                                                  Min       Avg       Max     Total     Power    % Time Off
                        Percent   Number of      Flow      Flow      Flow    Volume     Usage    Pump Curve
  Pump                 Utilized   Start-Ups       LPS       LPS       LPS  10^6 ltr     Kw-hr    Low   High
  ---------------------------------------------------------------------------------------------------------
  CC-Pump-1               51.06           7      0.00    143.68    200.00     2.100      3.26    0.0    8.3
  CC-Pump-2               67.30           5      0.00    149.30    200.00     2.833      3.65    0.0    7.8
  JK-Pump-1                0.00           0      0.00      0.00      0.00     0.000      0.00    0.0    0.0
  JK-Pump-2              100.00           1      0.00    250.59    300.00     5.639     51.12    0.0    0.0
  XR-Pump-1               95.74           4      0.00     78.72     95.00     2.166     16.09    0.0    0.0
  XR-Pump-2               95.74           3      0.00     86.49     95.00     2.280     16.74    0.0    0.0
  XR-Pump-3                0.00           0      0.00      0.00      0.00     0.000      0.00    0.0    0.0
  XR-Pump-4               87.21          10      0.00     66.94     95.00     1.653     12.60    0.0    0.0
  

  Analysis begun on:  Thu Jan  6 17:53:29 2022
  Analysis ended on:  Thu Jan  6 17:53:33 2022
  Total elapsed time: 00:00:04