
  EPA STORM WATER MANAGEMENT MODEL - VERSION 5.1 (Build 5.3.0.dev0)
  --------------------------------------------------------------

  WARNING 04: minimum elevation drop used for Conduit WS02004404WS02004405
  WARNING 03: negative offset ignored for Link YS02001904YS02001907
  
  *********************************************************
  NOTE: The summary statistics displayed in this report are
  based on results found at every computational time step,  
  not just on results from each reporting time step.
  *********************************************************
  
  ****************
  Analysis Options
  ****************
  Flow Units ............... LPS
  Process Models:
    Rainfall/Runoff ........ YES
    RDII ................... NO
    Snowmelt ............... NO
    Groundwater ............ NO
    Flow Routing ........... YES
    Ponding Allowed ........ NO
    Water Quality .......... NO
  Infiltration Method ...... HORTON
  Flow Routing Method ...... DYNWAVE
  Surcharge Method ......... EXTRAN
  Starting Date ............ 08/28/2015 08:00:00
  Ending Date .............. 08/28/2015 15:50:00
  Antecedent Dry Days ...... 8.0
  Report Time Step ......... 00:01:00
  Wet Time Step ............ 00:01:00
  Dry Time Step ............ 00:01:00
  Routing Time Step ........ 5.00 sec
  Variable Time Step ....... YES
  Maximum Trials ........... 8
  Number of Threads ........ 4
  Head Tolerance ........... 0.001500 m
  
  
  **************************        Volume         Depth
  Runoff Quantity Continuity     hectare-m            mm
  **************************     ---------       -------
  Total Precipitation ......         5.556        12.164
  Evaporation Loss .........         0.000         0.000
  Infiltration Loss ........         1.427         3.124
  Surface Runoff ...........         3.072         6.726
  Final Storage ............         1.058         2.316
  Continuity Error (%) .....        -0.016
  
  
  **************************        Volume        Volume
  Flow Routing Continuity        hectare-m      10^6 ltr
  **************************     ---------     ---------
  Dry Weather Inflow .......         0.616         6.165
  Wet Weather Inflow .......         3.071        30.708
  Groundwater Inflow .......         0.000         0.000
  RDII Inflow ..............         0.000         0.000
  External Inflow ..........         0.102         1.024
  External Outflow .........         1.832        18.316
  Flooding Loss ............         1.399        13.991
  Evaporation Loss .........         0.000         0.000
  Exfiltration Loss ........         0.000         0.000
  Initial Stored Volume ....         0.076         0.761
  Final Stored Volume ......         0.642         6.421
  Continuity Error (%) .....        -0.183
  
  
  *************************
  Highest Continuity Errors
  *************************
  Node HS02004842 (16.24%)
  Node YS02001884 (10.90%)
  Node YSB1171 (3.12%)
  Node HS02004817 (2.99%)
  Node YS02001774 (2.39%)
  
  
  ***************************
  Time-Step Critical Elements
  ***************************
  Link 3 (46.97%)
  Link WS02006252WS02006251 (43.94%)
  Link WS02006238WS02006235 (2.59%)
  Link WS02006280WS02006229 (1.72%)
  
  
  ********************************
  Highest Flow Instability Indexes
  ********************************
  Link YS02163601YS02164001 (42)
  Link YS02001619YS02001622 (42)
  Link YS02163301YS02001633 (41)
  Link YS02001629YS02163301 (41)
  Link WS02006113WS02006111 (39)
  
  
  *************************
  Routing Time Step Summary
  *************************
  Minimum Time Step           :     0.08 sec
  Average Time Step           :     0.82 sec
  Maximum Time Step           :     5.00 sec
  Percent in Steady State     :    -0.00
  Average Iterations per Step :     4.76
  Percent Not Converging      :    23.18
  
  
  ***************************
  Subcatchment Runoff Summary
  ***************************
  
  ------------------------------------------------------------------------------------------------------------------------------
                            Total      Total      Total      Total     Imperv       Perv      Total       Total     Peak  Runoff
                           Precip      Runon       Evap      Infil     Runoff     Runoff     Runoff      Runoff   Runoff   Coeff
  Subcatchment                 mm         mm         mm         mm         mm         mm         mm    10^6 ltr      LPS
  ------------------------------------------------------------------------------------------------------------------------------
  sub0                      12.16       0.00       0.00       0.85      10.05       0.00      10.05        0.01     1.91   0.826
  sub1                      12.16       0.00       0.00       1.34       9.56       0.00       9.56        0.06    14.15   0.786
  sub2                      12.16       0.00       0.00       4.50       6.75       0.00       6.75        0.06    13.75   0.555
  sub3                      12.16       0.00       0.00       4.50       6.71       0.00       6.71        0.15    32.07   0.552
  sub4                      12.16       0.00       0.00       1.34       9.40       0.00       9.40        0.20    40.20   0.773
  sub5                      12.16       0.00       0.00       0.85       9.99       0.00       9.99        0.11    25.19   0.822
  sub7                      12.16       0.00       0.00       1.09       9.81       0.00       9.81        0.03     7.55   0.807
  sub8                      12.16       0.00       0.00       1.09       9.80       0.00       9.80        0.06    14.17   0.806
  sub9                      12.16       0.00       0.00       1.09       9.80       0.00       9.80        0.05    10.64   0.806
  sub10                     12.16       0.00       0.00       0.97       9.89       0.00       9.89        0.11    24.40   0.813
  sub11                     12.16       0.00       0.00       0.97       9.91       0.00       9.91        0.12    26.15   0.815
  sub12                     12.16       0.00       0.00       1.58       9.39       0.00       9.39        0.08    19.06   0.772
  sub14                     12.16       0.00       0.00       1.09       9.80       0.00       9.80        0.09    21.02   0.805
  sub15                     12.16       0.00       0.00       3.65       7.53       0.00       7.53        0.13    29.11   0.619
  sub16                     12.16       0.00       0.00       4.01       7.23       0.00       7.23        0.08    17.47   0.594
  sub17                     12.16       0.00       0.00       3.89       7.34       0.00       7.34        0.06    14.47   0.603
  sub22                     12.16       0.00       0.00       5.23       6.14       0.00       6.14        0.39    88.27   0.505
  sub23                     12.16       0.00       0.00       4.50       6.79       0.00       6.79        0.32    73.89   0.558
  sub60                     12.16       0.00       0.00       1.46       7.71       0.00       7.71        2.34   297.17   0.634
  sub61                     12.16       0.00       0.00       2.07       7.87       0.00       7.87        2.43   359.80   0.647
  sub62                     12.16       0.00       0.00       0.97       8.55       0.00       8.55        2.63   372.87   0.703
  sub63                     12.16       0.00       0.00       3.53       6.89       0.00       6.89        2.09   327.80   0.567
  sub64                     12.16       0.00       0.00       1.82       7.40       0.00       7.40        2.25   282.66   0.608
  sub65                     12.16       0.00       0.00       1.58       7.52       0.00       7.52        2.31   287.20   0.618
  sub66                     12.16       0.00       0.00       3.53       6.36       0.00       6.36        1.95   257.27   0.523
  sub67                     12.16       0.00       0.00       0.97       9.05       0.00       9.05        2.79   452.90   0.744
  sub68                     12.16       0.00       0.00       1.70       8.28       0.00       8.28        2.55   391.99   0.681
  sub69                     12.16       0.00       0.00       1.82       8.61       0.00       8.61        2.01   355.79   0.708
  sub70                     12.16       8.79       0.00       7.03      11.43       0.10      11.53        2.64   335.00   0.550
  sub71                     12.16       0.00       0.00       0.97       8.31       0.00       8.31        1.96   263.63   0.683
  sub72                     12.16       0.00       0.00       0.85       6.56       0.00       6.56        1.34   129.40   0.540
  sub73                     12.16      11.23       0.00       7.88      12.47       0.08      12.54        2.95   300.52   0.536
  sub74                     12.16       0.00       0.00       9.12       2.57       0.00       2.57        1.03   189.59   0.211
  
  
  ******************
  Node Depth Summary
  ******************
  
  ---------------------------------------------------------------------------------
                                 Average  Maximum  Maximum  Time of Max    Reported
                                   Depth    Depth      HGL   Occurrence   Max Depth
  Node                 Type       Meters   Meters   Meters  days hr:min      Meters
  ---------------------------------------------------------------------------------
  WS02001211           JUNCTION     0.64     0.74     5.57     0  03:07        0.74
  WS02001212           JUNCTION     0.37     0.47     5.53     0  03:06        0.47
  WS02001213           JUNCTION     0.61     0.73     5.49     0  03:05        0.73
  WS02003069           JUNCTION     0.44     0.59     5.17     0  03:05        0.59
  WS02003072           JUNCTION     0.50     0.64     5.02     0  03:05        0.64
  WS02003073           JUNCTION     0.30     0.40     4.46     0  03:06        0.40
  WS02003060           JUNCTION     0.39     0.52     5.45     0  03:04        0.52
  WS02003066           JUNCTION     0.24     0.32     5.88     0  03:00        0.32
  WS02003059           JUNCTION     0.67     0.79     5.48     0  03:05        0.79
  WS02003067           JUNCTION     0.59     0.74     6.06     0  02:57        0.74
  WS02004401           JUNCTION     0.70     0.96     6.96     0  02:55        0.96
  WS02004402           JUNCTION     0.73     0.98     6.94     0  02:56        0.98
  WS02004403           JUNCTION     0.75     0.98     6.91     0  02:56        0.98
  WS02004404           JUNCTION     0.82     1.05     6.90     0  02:56        1.05
  WS02004406           JUNCTION     0.83     1.02     6.85     0  02:56        1.02
  WS02004409           JUNCTION     0.52     0.75     6.52     0  02:56        0.75
  WS02004410           JUNCTION     0.53     0.75     6.47     0  02:57        0.75
  WS02004411           JUNCTION     0.55     0.76     6.44     0  02:57        0.76
  WS02004412           JUNCTION     0.56     0.76     6.40     0  02:57        0.76
  WS02004413           JUNCTION     0.72     0.91     6.38     0  02:57        0.91
  WS02004405           JUNCTION     0.82     1.03     6.88     0  02:56        1.03
  WS02006109           JUNCTION     0.78     1.09     7.71     0  02:53        1.08
  WS02006110           JUNCTION     0.77     1.01     7.59     0  02:54        1.01
  WS02006111           JUNCTION     0.23     0.34     7.04     0  02:51        0.33
  WS02006112           JUNCTION     0.87     1.19     7.07     0  02:42        1.17
  WS02006113           JUNCTION     0.35     0.50     7.40     0  02:54        0.50
  WS02006115           JUNCTION     0.59     0.87     7.01     0  02:55        0.87
  WS02006116           JUNCTION     0.67     0.94     6.98     0  02:55        0.94
  WS02006230           JUNCTION     0.76     1.15     7.89     0  02:51        1.15
  WS02006231           JUNCTION     0.51     0.81     7.93     0  02:51        0.81
  WS02006232           JUNCTION     0.65     0.93     7.97     0  02:50        0.93
  WS02006234           JUNCTION     0.57     0.85     8.01     0  02:51        0.85
  WS02006235           JUNCTION     0.60     0.88     8.04     0  02:50        0.87
  WS02006238           JUNCTION     0.62     0.90     8.05     0  02:50        0.89
  WS02006240           JUNCTION     0.51     0.80     8.10     0  02:50        0.80
  WS02006242           JUNCTION     0.57     0.86     8.13     0  02:50        0.86
  WS02006243           JUNCTION     0.44     0.75     8.17     0  02:50        0.74
  WS02006245           JUNCTION     0.42     0.71     8.20     0  02:50        0.71
  WS02006247           JUNCTION     0.43     0.72     8.22     0  02:50        0.71
  WS02006248           JUNCTION     0.38     0.65     8.23     0  02:50        0.65
  WS02006249           JUNCTION     0.41     0.65     8.25     0  02:50        0.65
  WS02006239           JUNCTION     0.57     0.86     8.07     0  02:50        0.86
  WS02006251           JUNCTION     0.39     0.70     8.37     0  02:50        0.70
  WS02006252           JUNCTION     0.34     0.59     8.83     0  03:18        0.59
  WS02006253           JUNCTION     0.42     0.73     8.37     0  02:50        0.73
  WS02006256           JUNCTION     1.07     1.15     8.09     0  00:00        1.14
  WS02004138           JUNCTION     0.14     0.17     7.42     0  07:33        0.17
  WS02004407           JUNCTION     0.23     0.33     6.64     0  02:56        0.33
  WS02006228           JUNCTION     0.79     1.15     7.80     0  02:52        1.15
  WS02006229           JUNCTION     0.77     1.15     7.85     0  02:54        1.15
  WS02006280           JUNCTION     0.07     0.19     8.46     0  03:02        0.19
  WS02006284           JUNCTION     0.37     0.55     8.95     0  03:02        0.55
  WS02006287           JUNCTION     0.11     0.28     9.24     0  03:01        0.28
  WSF200               JUNCTION     0.23     0.35     5.58     0  03:02        0.35
  HS02004901           JUNCTION     0.13     0.28    10.10     0  03:01        0.28
  HS02004881           JUNCTION     0.01     0.04     9.07     0  03:01        0.04
  HS02004876           JUNCTION     0.05     0.12     9.15     0  03:01        0.12
  HS02004870           JUNCTION     0.02     0.06     9.35     0  03:01        0.06
  HS02004862           JUNCTION     0.02     0.07     9.46     0  03:01        0.07
  HS02004856           JUNCTION     0.08     0.13     9.55     0  03:01        0.13
  HS02004852           JUNCTION     0.01     0.05     9.56     0  03:01        0.05
  HS02004848           JUNCTION     0.01     0.05     9.65     0  03:01        0.05
  HS02004842           JUNCTION     0.33     0.38     9.65     0  03:01        0.38
  HS02004837           JUNCTION     0.03     0.07     9.65     0  03:01        0.07
  HS02004830           JUNCTION     0.04     0.08     9.55     0  03:01        0.08
  HS02004824           JUNCTION     0.03     0.06     9.46     0  03:01        0.06
  HS02004817           JUNCTION     0.44     0.60     9.44     0  03:01        0.60
  HS02004807           JUNCTION     0.13     0.27     9.44     0  03:01        0.27
  HS02004802           JUNCTION     0.17     0.30     9.43     0  03:01        0.30
  HS02004799           JUNCTION     0.13     0.33     9.54     0  03:01        0.33
  HS02004792           JUNCTION     0.04     0.14     9.66     0  03:01        0.14
  HS02004788           JUNCTION     0.03     0.10    10.00     0  03:01        0.10
  HS02004785           JUNCTION     0.05     0.17    10.07     0  03:01        0.17
  HS02004777           JUNCTION     0.15     0.30    10.10     0  03:01        0.30
  HS02004770           JUNCTION     0.12     0.27    10.10     0  03:01        0.27
  HS02004480           JUNCTION     0.09     0.26     9.50     0  03:01        0.26
  HS02004479           JUNCTION     0.12     0.30     9.50     0  03:01        0.30
  HS02004478           JUNCTION     0.07     0.18     9.41     0  03:01        0.18
  YS02001745           JUNCTION     0.69     0.87     8.39     0  03:37        0.87
  YS02001748           JUNCTION     1.08     2.27     9.35     0  02:42        1.66
  YS02001751           JUNCTION     1.27     2.13     9.01     0  02:42        1.79
  YS02001754           JUNCTION     1.52     2.04     8.65     0  02:42        1.83
  YS02001762           JUNCTION     1.72     2.03     8.43     0  03:03        2.02
  YS02001765           JUNCTION     1.67     1.98     8.43     0  03:06        1.97
  YS02001767           JUNCTION     1.64     1.93     8.42     0  03:26        1.92
  YS02001770           JUNCTION     1.63     1.91     8.40     0  03:05        1.90
  YS02001774           JUNCTION     1.70     1.98     8.40     0  02:42        1.96
  YS02001779           JUNCTION     1.45     1.68     8.37     0  02:42        1.68
  YS02001882           JUNCTION     0.54     1.61     8.32     0  03:00        1.60
  YS02001884           JUNCTION     0.63     1.71     8.33     0  03:00        1.70
  YS02001759           JUNCTION     1.75     2.07     8.43     0  03:21        2.06
  YS02001887           JUNCTION     0.71     1.79     8.32     0  03:00        1.78
  YS02001890           JUNCTION     0.74     1.81     8.31     0  02:59        1.80
  YS02001898           JUNCTION     0.51     1.55     8.29     0  02:57        1.54
  YS02001901           JUNCTION     0.63     1.67     8.28     0  03:02        1.66
  YS02001904           JUNCTION     0.61     1.64     8.27     0  03:00        1.63
  YS02001907           JUNCTION     0.93     1.96     8.25     0  02:52        1.96
  YS02001910           JUNCTION     0.73     1.78     8.28     0  02:54        1.77
  YS02001915           JUNCTION     0.52     1.59     8.31     0  02:54        1.57
  YS02001918           JUNCTION     0.27     1.26     8.33     0  02:53        1.25
  YS02001619           JUNCTION     1.24     1.59     8.52     0  02:39        1.47
  YS02001629           JUNCTION     1.59     1.85     8.40     0  02:39        1.84
  YS02001641           JUNCTION     1.69     1.94     8.38     0  02:43        1.93
  YS02001644           JUNCTION     1.69     1.92     8.35     0  02:43        1.92
  YS02001652           JUNCTION     1.53     2.16     8.76     0  03:06        1.88
  YS02001655           JUNCTION     1.30     2.20     9.05     0  02:56        1.66
  YS02001920           JUNCTION     0.37     1.34     8.35     0  02:53        1.32
  YS02001923           JUNCTION     0.21     1.10     8.36     0  02:53        1.09
  YS02001926           JUNCTION     0.26     0.92     8.36     0  02:53        0.89
  YS02001929           JUNCTION     0.15     0.69     8.39     0  02:53        0.67
  YS02001658           JUNCTION     1.03     2.30     9.44     0  02:56        1.41
  YS02001661           JUNCTION     0.80     2.46     9.86     0  03:07        1.31
  YS02001664           JUNCTION     0.35     0.57     8.49     0  02:52        0.56
  YS02001622           JUNCTION     1.26     1.58     8.48     0  02:39        1.49
  YS02001633           JUNCTION     1.68     1.98     8.43     0  02:43        1.94
  YS02001649           JUNCTION     1.73     2.05     8.44     0  02:54        2.05
  YS02001757           JUNCTION     1.85     2.17     8.43     0  03:37        2.16
  YS02001895           JUNCTION     0.50     1.56     8.30     0  03:00        1.55
  YS02001625           JUNCTION     1.54     1.78     8.38     0  02:38        1.78
  YS02163301           JUNCTION     1.62     1.90     8.42     0  02:43        1.87
  YS02163601           JUNCTION     1.73     2.02     8.42     0  02:43        1.98
  YS02164001           JUNCTION     1.67     1.95     8.40     0  02:43        1.91
  YS02001647           JUNCTION     1.52     1.81     8.42     0  02:56        1.79
  YSB1154              JUNCTION     0.26     0.45     9.51     0  03:01        0.45
  YSB6556              JUNCTION     0.16     0.34     9.51     0  03:01        0.34
  YSB1174              JUNCTION     0.22     0.40     9.51     0  03:01        0.40
  YSB1171              JUNCTION     0.41     0.60     9.51     0  03:01        0.60
  YS02006553           JUNCTION     0.94     1.97     8.25     0  03:00        1.96
  YS02006561           JUNCTION     0.31     1.08     7.74     0  03:00        1.07
  YS02006556           JUNCTION     0.90     1.92     8.23     0  03:00        1.91
  YS02006558           JUNCTION     0.95     1.96     8.23     0  03:00        1.95
  YS02001783           JUNCTION     0.55     1.69     7.83     0  02:37        1.46
  YS02001784           JUNCTION     0.58     2.29     8.36     0  02:37        1.40
  YS02001786           JUNCTION     0.53     2.10     8.13     0  02:37        1.25
  YS02001788           JUNCTION     0.48     2.13     8.10     0  02:37        1.13
  YS02001790           JUNCTION     0.62     1.96     7.60     0  02:36        1.29
  YS02001791           JUNCTION     0.63     1.67     7.14     0  02:37        1.27
  YS02001793           JUNCTION     0.90     2.48     7.31     0  02:34        1.80
  WS02004139           JUNCTION     0.58     0.68     5.59     0  03:07        0.68
  WSC                  OUTFALL      0.30     0.40     1.07     0  03:06        0.40
  3                    OUTFALL      0.09     0.13     6.13     0  02:51        0.13
  4                    OUTFALL      0.02     0.15     7.15     0  02:50        0.15
  5                    OUTFALL      0.00     0.00     5.00     0  00:00        0.00
  JK-storage           STORAGE      3.32     5.80     6.60     0  02:37        5.80
  CC-storage           STORAGE      1.08     1.38     8.38     0  04:05        1.38
  XR-storage           STORAGE      7.54     7.72     5.72     0  02:14        7.72
  
  
  *******************
  Node Inflow Summary
  *******************
  
  -------------------------------------------------------------------------------------------------
                                  Maximum  Maximum                  Lateral       Total        Flow
                                  Lateral    Total  Time of Max      Inflow      Inflow     Balance
                                   Inflow   Inflow   Occurrence      Volume      Volume       Error
  Node                 Type           LPS      LPS  days hr:min    10^6 ltr    10^6 ltr     Percent
  -------------------------------------------------------------------------------------------------
  WS02001211           JUNCTION      7.35   293.50     0  07:44       0.207        6.02       0.612
  WS02001212           JUNCTION      0.00   294.51     0  07:43           0        5.98       0.351
  WS02001213           JUNCTION      0.00   295.77     0  06:20           0        5.96       0.357
  WS02003069           JUNCTION      0.32   950.54     0  03:04     0.00902        14.5       0.188
  WS02003072           JUNCTION      0.00   950.40     0  03:05           0        14.5       0.234
  WS02003073           JUNCTION      1.82   952.25     0  03:05      0.0514        14.5       0.262
  WS02003060           JUNCTION     16.53   950.36     0  03:04       0.466        14.5       0.180
  WS02003066           JUNCTION      0.00   650.73     0  02:58           0        8.15       0.046
  WS02003059           JUNCTION      0.00   298.56     0  06:21           0        5.94       0.636
  WS02003067           JUNCTION      0.00   650.66     0  02:58           0        8.16       0.100
  WS02004401           JUNCTION      0.00   652.86     0  02:52           0        8.38       0.243
  WS02004402           JUNCTION      0.00   651.67     0  02:55           0        8.36       0.230
  WS02004403           JUNCTION      0.00   651.38     0  02:56           0        8.34       0.210
  WS02004404           JUNCTION      0.16   651.45     0  02:56     0.00457        8.32       0.159
  WS02004406           JUNCTION      0.00   651.55     0  02:56           0        8.29       0.387
  WS02004409           JUNCTION      0.00   651.49     0  02:56           0        8.25       0.169
  WS02004410           JUNCTION      0.00   651.22     0  02:56           0        8.24       0.190
  WS02004411           JUNCTION      0.00   650.93     0  02:57           0        8.22       0.196
  WS02004412           JUNCTION      0.00   650.84     0  02:57           0        8.21       0.215
  WS02004413           JUNCTION      0.00   650.73     0  02:57           0        8.19       0.324
  WS02004405           JUNCTION      0.04   651.51     0  02:56     0.00107        8.31       0.238
  WS02006109           JUNCTION      1.23   639.30     0  02:55      0.0347        8.43       0.248
  WS02006110           JUNCTION      0.00   639.16     0  02:53           0        8.41       0.236
  WS02006111           JUNCTION      0.00   671.27     0  02:54           0        8.38       0.053
  WS02006112           JUNCTION     14.47   659.67     0  02:52      0.0629        8.44       0.342
  WS02006113           JUNCTION      0.00   641.66     0  02:53           0        8.39       0.115
  WS02006115           JUNCTION      0.00   660.13     0  02:52           0        8.41       0.223
  WS02006116           JUNCTION      0.00   654.40     0  02:52           0        8.39       0.213
  WS02006230           JUNCTION     10.28   397.26     0  06:01        0.29        6.55       0.182
  WS02006231           JUNCTION      0.00   387.71     0  05:55           0        6.27       0.218
  WS02006232           JUNCTION      0.00   388.00     0  05:55           0        6.29       0.260
  WS02006234           JUNCTION      0.00   389.61     0  05:54           0         6.3       0.133
  WS02006235           JUNCTION      0.00   390.45     0  05:54           0        6.34       0.168
  WS02006238           JUNCTION      0.00   310.77     0  07:12           0        4.17       0.186
  WS02006240           JUNCTION      0.00   314.86     0  06:51           0        4.17       0.283
  WS02006242           JUNCTION      0.00   324.90     0  06:51           0        4.17       0.345
  WS02006243           JUNCTION      0.00   333.83     0  05:51           0        4.16      -0.223
  WS02006245           JUNCTION      0.00   340.67     0  04:31           0        4.17       0.275
  WS02006247           JUNCTION      0.00   347.30     0  04:30           0        4.17       0.156
  WS02006248           JUNCTION      0.00   352.66     0  04:30           0        4.17       0.053
  WS02006249           JUNCTION      0.00   464.74     0  02:50           0        4.61       0.277
  WS02006239           JUNCTION      0.00   311.83     0  07:11           0        4.17       0.280
  WS02006251           JUNCTION      0.08   466.57     0  02:50     0.00217        4.65       0.185
  WS02006252           JUNCTION      0.00   400.00     0  03:10           0        4.25       0.010
  WS02006253           JUNCTION      1.91    81.00     0  03:01     0.00814       0.404       0.952
  WS02006256           JUNCTION      0.00   300.00     0  00:00           0        5.64       0.052
  WS02004138           JUNCTION      0.00   285.00     0  03:00           0        5.84       0.078
  WS02004407           JUNCTION      0.00   651.63     0  02:56           0        8.26       0.080
  WS02006228           JUNCTION      0.00   638.05     0  02:53           0        8.41       0.177
  WS02006229           JUNCTION      0.00   636.72     0  02:52           0        8.43       0.147
  WS02006280           JUNCTION      0.00   375.55     0  03:02           0        1.89       0.004
  WS02006284           JUNCTION      0.10   375.54     0  03:02      0.0027        1.89       0.064
  WS02006287           JUNCTION      0.00   375.27     0  03:01           0        1.89       0.038
  WSF200               JUNCTION      0.00   650.73     0  02:58           0        8.15       0.040
  HS02004901           JUNCTION     17.47    17.47     0  03:01      0.0757      0.0759       2.380
  HS02004881           JUNCTION      7.55    79.19     0  03:01      0.0331       0.357       0.083
  HS02004876           JUNCTION     14.15    72.10     0  03:01      0.0636       0.324       0.171
  HS02004870           JUNCTION     14.17    58.27     0  03:01      0.0626       0.261       0.043
  HS02004862           JUNCTION     13.95    44.46     0  03:01      0.0685       0.198       0.089
  HS02004856           JUNCTION     10.64    30.79     0  03:01      0.0471       0.131       1.114
  HS02004852           JUNCTION      0.00    20.44     0  03:01           0       0.084       0.069
  HS02004848           JUNCTION     32.07    32.07     0  03:01       0.151       0.151       0.033
  HS02004842           JUNCTION      0.00    11.42     0  03:01           0      0.0801      19.389
  HS02004837           JUNCTION     30.75    41.91     0  03:01       0.288       0.355       0.229
  HS02004830           JUNCTION      0.15    41.84     0  03:01     0.00423       0.346       0.359
  HS02004824           JUNCTION     40.25    81.79     0  03:01       0.197       0.542       0.100
  HS02004817           JUNCTION      0.60    82.18     0  03:01      0.0169       0.558       3.079
  HS02004807           JUNCTION     26.15   107.24     0  03:01       0.115       0.657       0.656
  HS02004802           JUNCTION      0.00   106.49     0  03:01           0       0.653       0.618
  HS02004799           JUNCTION     21.02   227.51     0  03:01      0.0932        1.06       0.236
  HS02004792           JUNCTION     88.55   207.32     0  03:01       0.396       0.966       0.043
  HS02004788           JUNCTION     30.78   119.37     0  03:01       0.177       0.571       0.069
  HS02004785           JUNCTION      0.15    89.79     0  03:01     0.00423       0.396       0.125
  HS02004777           JUNCTION      0.03    90.24     0  03:01    0.000846       0.397       1.326
  HS02004770           JUNCTION     73.89    90.93     0  03:01       0.324       0.398       0.787
  HS02004480           JUNCTION      0.00   269.27     0  03:01           0        1.25       0.099
  HS02004479           JUNCTION      0.00    42.82     0  03:02           0       0.204       0.360
  HS02004478           JUNCTION      0.00   375.17     0  03:01           0        1.89       0.018
  YS02001745           JUNCTION    297.18   358.55     0  02:40        2.34        2.34       0.471
  YS02001748           JUNCTION      0.04   558.77     0  02:41     0.00127        2.33       0.991
  YS02001751           JUNCTION      0.01   307.29     0  03:01     0.00031         2.3       1.027
  YS02001754           JUNCTION      0.26   307.54     0  03:01     0.00733        2.29       1.095
  YS02001762           JUNCTION      0.00   335.13     0  02:54           0        1.66       1.275
  YS02001765           JUNCTION      0.00   335.25     0  02:54           0        1.66       1.465
  YS02001767           JUNCTION      0.54   335.14     0  02:54      0.0151        1.69       2.152
  YS02001770           JUNCTION    373.02   373.02     0  03:01        2.63        2.69       1.181
  YS02001774           JUNCTION      0.00   218.12     0  03:14           0        1.04       2.451
  YS02001779           JUNCTION      0.01   218.48     0  03:11    0.000141        1.01       1.536
  YS02001882           JUNCTION      0.00    30.63     0  02:45           0      0.0192      13.135
  YS02001884           JUNCTION      0.00    62.55     0  02:39           0      0.0557      12.237
  YS02001759           JUNCTION    359.84   658.85     0  02:54        2.43        4.01       0.574
  YS02001887           JUNCTION    453.35   453.37     0  03:01         2.8        2.83       0.299
  YS02001890           JUNCTION      0.00   453.52     0  03:01           0        2.79       0.330
  YS02001898           JUNCTION      0.00   453.61     0  03:01           0        2.77       0.117
  YS02001901           JUNCTION      0.00   453.64     0  03:01           0        2.77       0.250
  YS02001904           JUNCTION      0.00   453.52     0  03:01           0        2.77       0.226
  YS02001907           JUNCTION      0.00   872.29     0  02:58           0        6.12       0.395
  YS02001910           JUNCTION      0.00   447.25     0  02:54           0        3.37       0.349
  YS02001915           JUNCTION    263.65   446.93     0  02:54        1.96        3.39       0.178
  YS02001918           JUNCTION      0.00   212.25     0  02:54           0        1.44       0.135
  YS02001619           JUNCTION    257.27   257.27     0  03:01        1.95        1.95       0.632
  YS02001629           JUNCTION      0.00   206.46     0  02:49           0        1.63       1.824
  YS02001641           JUNCTION      0.00   435.45     0  02:49           0        3.84       0.550
  YS02001644           JUNCTION    282.70   920.21     0  03:35        2.25        8.19       0.320
  YS02001652           JUNCTION      0.00   370.10     0  03:02           0        2.04       1.151
  YS02001655           JUNCTION      0.15   370.50     0  03:02     0.00434        2.06       1.246
  YS02001920           JUNCTION      2.87   212.32     0  02:54      0.0809        1.43       0.206
  YS02001923           JUNCTION      0.04   235.40     0  02:54     0.00106        1.34       0.049
  YS02001926           JUNCTION      0.05   188.09     0  02:54     0.00147        1.34       0.248
  YS02001929           JUNCTION    129.40   129.40     0  03:01        1.34        1.34       0.040
  YS02001658           JUNCTION      0.00   550.51     0  02:39           0        2.08       1.140
  YS02001661           JUNCTION      0.00   690.33     0  02:53           0        2.78      -0.124
  YS02001664           JUNCTION    327.80   361.17     0  02:52        2.09        2.79       0.254
  YS02001622           JUNCTION      0.00   257.60     0  03:01           0        1.94       1.669
  YS02001633           JUNCTION    287.40   434.91     0  02:49        2.32         3.9       0.823
  YS02001649           JUNCTION      0.00   928.55     0  02:50           0        5.19       0.722
  YS02001757           JUNCTION      0.00  1765.40     0  02:50           0        9.23       1.009
  YS02001895           JUNCTION      0.00   453.65     0  03:01           0        2.78       0.177
  YS02001625           JUNCTION      0.00   257.39     0  03:01           0         1.9       2.075
  YS02163301           JUNCTION      0.00   206.71     0  02:49           0        1.61       1.504
  YS02163601           JUNCTION      0.11   434.97     0  02:49      0.0031        3.87       0.783
  YS02164001           JUNCTION      0.00   435.09     0  02:49           0        3.84       0.521
  YS02001647           JUNCTION      0.00   660.43     0  02:49           0        4.18       0.680
  YSB1154              JUNCTION     25.19    25.19     0  03:01       0.113       0.114       1.285
  YSB6556              JUNCTION      0.00    24.91     0  03:01           0       0.115       1.100
  YSB1174              JUNCTION     19.06    19.06     0  03:01      0.0821      0.0827       1.580
  YSB1171              JUNCTION      0.00    43.19     0  03:01           0       0.203       3.219
  YS02006553           JUNCTION      0.00   667.22     0  03:17           0         5.9       0.267
  YS02006561           JUNCTION      0.00   964.11     0  03:00           0        8.42       0.009
  YS02006556           JUNCTION      0.00   667.04     0  03:17           0         5.9       0.192
  YS02006558           JUNCTION    392.87   964.38     0  03:01        2.57        8.45       0.062
  YS02001783           JUNCTION      0.00   964.08     0  03:00           0        8.42       0.028
  YS02001784           JUNCTION      1.06   965.20     0  03:00      0.0299        8.44       0.045
  YS02001786           JUNCTION      0.06   965.19     0  03:00     0.00159        8.44       0.041
  YS02001788           JUNCTION      0.07   965.22     0  03:00       0.002        8.44       0.024
  YS02001790           JUNCTION      0.15   965.37     0  03:01     0.00437        8.44       0.030
  YS02001791           JUNCTION      0.00   965.32     0  03:00           0        8.44       0.014
  YS02001793           JUNCTION      0.00   965.53     0  03:00           0        8.44       0.004
  WS02004139           JUNCTION      0.32   285.32     0  03:03     0.00905        5.85       0.645
  WSC                  OUTFALL       0.00   952.44     0  03:06           0        14.4       0.000
  3                    OUTFALL       0.00   261.01     0  02:51           0        3.45       0.000
  4                    OUTFALL       0.00   212.20     0  02:50           0        0.42       0.000
  5                    OUTFALL       0.00     0.00     0  00:00           0           0       0.000 ltr
  JK-storage           STORAGE       0.00   965.52     0  03:00           0        8.59      -0.319
  CC-storage           STORAGE       0.00  1765.35     0  02:50           0           8       0.647
  XR-storage           STORAGE     690.11   690.11     0  03:01        9.61        10.2      -0.000
  
  
  **********************
  Node Surcharge Summary
  **********************
  
  Surcharging occurs when water rises above the top of the highest conduit.
  ---------------------------------------------------------------------
                                               Max. Height   Min. Depth
                                   Hours       Above Crown    Below Rim
  Node                 Type      Surcharged         Meters       Meters
  ---------------------------------------------------------------------
  WS02004404           JUNCTION        0.64          0.047        2.733
  WS02004406           JUNCTION        0.33          0.021        2.429
  WS02004405           JUNCTION        0.50          0.034        2.766
  WS02006109           JUNCTION        2.13          0.270        1.550
  WS02006110           JUNCTION        0.92          0.100        1.750
  WS02006112           JUNCTION        1.17          0.189        1.491
  WS02006230           JUNCTION        0.56          0.068        1.502
  WS02006231           JUNCTION        0.75          0.098        1.432
  WS02006232           JUNCTION        2.22          0.232        1.248
  WS02006234           JUNCTION        0.97          0.129        1.111
  WS02006235           JUNCTION        1.32          0.168        1.122
  WS02006238           JUNCTION        1.65          0.183        1.247
  WS02006240           JUNCTION        0.80          0.094        1.296
  WS02006242           JUNCTION        1.17          0.132        0.688
  WS02006243           JUNCTION        0.23          0.036        0.734
  WS02006245           JUNCTION        0.01          0.002        0.848
  WS02006247           JUNCTION        0.03          0.007        0.753
  WS02006239           JUNCTION        0.94          0.120        1.170
  WS02006252           JUNCTION        1.86          0.193        0.907
  WS02006228           JUNCTION        2.01          0.320        1.880
  YS02001748           JUNCTION        5.06          1.190        0.000
  YS02001751           JUNCTION        5.24          1.133        0.067
  YS02001754           JUNCTION        5.42          0.988        0.162
  YS02001762           JUNCTION        5.64          1.032        0.118
  YS02001765           JUNCTION        5.61          0.978        0.122
  YS02001767           JUNCTION        5.59          0.932        0.098
  YS02001770           JUNCTION        5.57          0.878        0.042
  YS02001774           JUNCTION        5.63          0.982        0.068
  YS02001779           JUNCTION        5.41          0.680        0.000
  YS02001882           JUNCTION        0.80          0.607        0.223
  YS02001884           JUNCTION        0.83          0.651        0.219
  YS02001759           JUNCTION        5.66          1.069        0.141
  YS02001887           JUNCTION        0.92          0.737        0.213
  YS02001890           JUNCTION        0.95          0.759        0.001
  YS02001898           JUNCTION        0.75          0.522        0.218
  YS02001901           JUNCTION        0.88          0.669        0.201
  YS02001904           JUNCTION        0.86          0.637        0.213
  YS02001907           JUNCTION        1.50          0.950        0.000
  YS02001910           JUNCTION        1.00          0.776        0.324
  YS02001915           JUNCTION        0.78          0.588        0.412
  YS02001918           JUNCTION        0.53          0.264        0.546
  YS02001619           JUNCTION        5.26          0.586        0.024
  YS02001629           JUNCTION        5.26          0.470        0.000
  YS02001641           JUNCTION        5.62          0.942        0.158
  YS02001644           JUNCTION        5.62          0.920        0.000
  YS02001652           JUNCTION        5.46          1.130        0.000
  YS02001655           JUNCTION        5.28          1.200        0.000
  YS02001920           JUNCTION        0.56          0.339        0.801
  YS02001658           JUNCTION        5.09          1.300        0.000
  YS02001661           JUNCTION        0.24          1.390        0.000
  YS02001622           JUNCTION        5.27          0.579        0.041
  YS02001633           JUNCTION        5.60          0.956        0.104
  YS02001649           JUNCTION        5.64          1.050        0.000
  YS02001757           JUNCTION        5.74          1.168        0.042
  YS02001895           JUNCTION        0.76          0.557        0.193
  YS02001625           JUNCTION        5.54          0.780        0.000
  YS02163301           JUNCTION        5.58          0.902        0.128
  YS02163601           JUNCTION        5.64          1.021        0.059
  YS02164001           JUNCTION        5.61          0.947        0.153
  YS02001647           JUNCTION        5.52          0.806        0.094
  YS02006553           JUNCTION        1.57          0.965        0.225
  YS02006561           JUNCTION        0.66          0.282        0.868
  YS02006556           JUNCTION        1.20          0.879        0.471
  YS02006558           JUNCTION        1.17          0.860        0.540
  YS02001783           JUNCTION        1.28          0.889        0.711
  YS02001784           JUNCTION        1.33          1.490        0.000
  YS02001786           JUNCTION        1.28          1.295        0.135
  YS02001788           JUNCTION        1.27          1.326        0.154
  YS02001790           JUNCTION        2.66          1.157        0.000
  YS02001791           JUNCTION        2.79          0.868        1.052
  YS02001793           JUNCTION        2.99          1.483        1.117
  
  
  *********************
  Node Flooding Summary
  *********************
  
  Flooding refers to all water that overflows a node, whether it ponds or not.
  --------------------------------------------------------------------------
                                                             Total   Maximum
                                 Maximum   Time of Max       Flood    Ponded
                        Hours       Rate    Occurrence      Volume     Depth
  Node                 Flooded       LPS   days hr:min    10^6 ltr    Meters
  --------------------------------------------------------------------------
  YS02001748              0.01    159.45      0  02:42       0.000     0.000
  YS02001779              2.49    218.39      0  03:11       0.991     0.000
  YS02001907              0.38    288.78      0  02:59       0.211     0.000
  YS02001629              0.01      7.40      0  02:39       0.000     0.000
  YS02001644              3.94    920.06      0  03:35       6.084     0.000
  YS02001652              0.01     18.65      0  03:09       0.000     0.000
  YS02001655              0.01     22.68      0  03:09       0.000     0.000
  YS02001658              0.01     10.31      0  03:09       0.000     0.000
  YS02001661              0.01    171.11      0  03:09       0.000     0.000
  YS02001649              0.08     49.41      0  03:09       0.005     0.000
  YS02001625              0.86    168.81      0  03:01       0.237     0.000
  YS02001784              0.01    145.97      0  02:37       0.000     0.000
  YS02001790              0.01    111.93      0  02:36       0.000     0.000
  JK-storage              2.34    665.47      0  03:00       2.977     0.000
  XR-storage              5.06    405.09      0  03:01       3.487     0.000
  
  
  **********************
  Storage Volume Summary
  **********************
  
  --------------------------------------------------------------------------------------------------
                         Average     Avg  Evap Exfil       Maximum     Max    Time of Max    Maximum
                          Volume    Pcnt  Pcnt  Pcnt        Volume    Pcnt     Occurrence    Outflow
  Storage Unit           1000 m3    Full  Loss  Loss       1000 m3    Full    days hr:min        LPS
  --------------------------------------------------------------------------------------------------
  JK-storage               0.167      57     0     0         0.291     100       0  02:37     440.02
  CC-storage               3.003      19     0     0         3.844      24       0  04:05     400.00
  XR-storage               0.904      98     0     0         0.926     100       0  02:14     285.00
  
  
  ***********************
  Outfall Loading Summary
  ***********************
  
  -----------------------------------------------------------
                         Flow       Avg       Max       Total
                         Freq      Flow      Flow      Volume
  Outfall Node           Pcnt       LPS       LPS    10^6 ltr
  -----------------------------------------------------------
  WSC                   99.99    590.24    952.44      14.449
  3                     92.79    167.13    261.01       3.446
  4                     35.73     56.11    212.20       0.420
  5                      0.00      0.00      0.00       0.000
  -----------------------------------------------------------
  System                57.13    813.48   1354.83      18.316
  
  
  ********************
  Link Flow Summary
  ********************
  
  -----------------------------------------------------------------------------
                                 Maximum  Time of Max   Maximum    Max/    Max/
                                  |Flow|   Occurrence   |Veloc|    Full    Full
  Link                 Type          LPS  days hr:min     m/sec    Flow   Depth
  -----------------------------------------------------------------------------
  WS02003066WSF200     CONDUIT    650.73     0  02:58      2.84    0.11    0.26
  WS02006287WS02006284 CONDUIT    375.44     0  03:02      1.98    0.17    0.29
  WS02006284WS02006280 CONDUIT    375.55     0  03:02      2.22    0.16    0.27
  WS02006280WS02006229 CONDUIT    375.58     0  03:02      3.58    0.08    0.19
  WS02006229WS02006228 CONDUIT    638.05     0  02:53      1.27    2.11    1.00
  WS02006256WS02006235 CONDUIT    166.25     0  00:01      2.58    1.76    1.00
  WS02006253WS02006251 CONDUIT     95.52     0  02:59      0.46    0.29    0.99
  WS02006252WS02006251 CONDUIT    400.35     0  05:50      3.19    1.47    1.00
  WS02006251WS02006249 CONDUIT    464.74     0  02:50      1.22    1.34    0.96
  WS02006249WS02006248 CONDUIT    352.66     0  04:30      1.16    1.93    0.91
  WS02006248WS02006247 CONDUIT    347.30     0  04:30      1.12    0.76    0.96
  WS02006247WS02006245 CONDUIT    340.67     0  04:31      1.08    2.70    1.00
  WS02006245WS02006243 CONDUIT    333.83     0  05:51      1.10    0.99    1.00
  WS02006243WS02006242 CONDUIT    324.90     0  06:51      0.95    0.69    1.00
  WS02006242WS02006240 CONDUIT    314.86     0  06:51      0.87    1.25    1.00
  WS02006240WS02006239 CONDUIT    311.83     0  07:11      0.86    0.98    1.00
  WS02006239WS02006238 CONDUIT    310.77     0  07:12      0.81    0.99    1.00
  WS02006238WS02006235 CONDUIT    310.92     0  07:12      1.25    0.69    1.00
  WS02006235WS02006234 CONDUIT    389.61     0  05:54      1.04    4.11    1.00
  WS02006234WS02006232 CONDUIT    388.00     0  05:55      1.13    0.78    1.00
  WS02006232WS02006231 CONDUIT    387.71     0  05:55      1.06    0.81    1.00
  WS02006231WS02006230 CONDUIT    386.98     0  06:01      1.35    5.87    1.00
  WS02006230WS02006229 CONDUIT    397.27     0  06:01      1.03    8.84    1.00
  WS02006228WS02006109 CONDUIT    638.07     0  02:55      1.27    2.79    1.00
  WS02006116WS02004401 CONDUIT    652.86     0  02:52      0.85    0.90    0.95
  WS02006115WS02006116 CONDUIT    654.40     0  02:52      0.90    0.84    0.88
  WS02006113WS02006111 CONDUIT    671.27     0  02:54      2.59    0.80    0.52
  WS02006112WS02006115 CONDUIT    660.13     0  02:52      0.87    0.39    0.93
  WS02006111WS02006112 CONDUIT    646.54     0  02:52      1.72    0.31    0.70
  WS02006110WS02006113 CONDUIT    641.66     0  02:53      1.47    0.58    0.81
  WS02006109WS02006110 CONDUIT    639.16     0  02:53      1.27    1.23    1.00
  WS02004411WS02004412 CONDUIT    650.84     0  02:57      1.02    0.92    0.76
  WS02004401WS02004402 CONDUIT    651.67     0  02:55      0.84    0.78    0.97
  WS02004413WS02003067 CONDUIT    650.66     0  02:58      1.24    0.28    0.64
  WS02004412WS02004413 CONDUIT    650.73     0  02:57      0.93    0.44    0.83
  WS02004410WS02004411 CONDUIT    650.93     0  02:57      1.02    0.89    0.76
  WS02004409WS02004410 CONDUIT    651.22     0  02:56      1.03    0.84    0.75
  WS02004407WS02004409 CONDUIT    651.49     0  02:56      1.52    0.23    0.54
  WS02004406WS02004407 CONDUIT    651.63     0  02:56      1.18    0.29    0.66
  WS02004405WS02004406 CONDUIT    651.55     0  02:56      0.83    1.29    1.00
  WS02004404WS02004405 CONDUIT    651.47     0  02:56      0.84    6.38    1.00
  WS02004403WS02004404 CONDUIT    651.28     0  02:56      0.83    0.47    0.99
  WS02004402WS02004403 CONDUIT    651.38     0  02:56      0.83    0.94    0.98
  WS02004139WS02001211 CONDUIT    286.15     0  07:44      0.69    0.36    0.55
  WS02004138WS02004139 CONDUIT    285.00     0  03:03      2.94    0.06    0.40
  WS02003067WS02003066 CONDUIT    650.73     0  02:58      1.34    0.21    0.44
  WS02001213WS02003059 CONDUIT    298.56     0  06:21      0.65    0.49    0.75
  WS02001212WS02001213 CONDUIT    295.77     0  06:20      1.17    0.46    0.44
  WS02001211WS02001212 CONDUIT    294.51     0  07:43      0.67    0.23    0.60
  WS02003072WS02003073 CONDUIT    950.43     0  03:05      1.73    2.05    0.49
  WS02003069WS02003072 CONDUIT    950.40     0  03:05      1.63    0.46    0.51
  WS02003060WS02003069 CONDUIT    950.22     0  03:04      1.87    0.37    0.46
  WS02003059WS02003060 CONDUIT    302.16     0  06:21      0.77    0.20    0.65
  HS02004901HS02004770 CONDUIT     17.71     0  03:01      0.07    0.07    0.39
  HS02004876HS02004881 CONDUIT     71.90     0  03:01      0.92    0.76    0.11
  HS02004870HS02004876 CONDUIT     58.03     0  03:01      0.63    0.04    0.13
  HS02004842HS02004848 CONDUIT     11.42     0  03:01      0.05    0.01    0.30
  HS02004837HS02004842 CONDUIT     11.94     0  03:02      0.41    0.01    0.32
  HS02004830HS02004837 CONDUIT     41.69     0  03:01      0.56    0.04    0.11
  HS02004824HS02004830 CONDUIT     41.67     0  03:01      0.58    0.05    0.10
  HS02004817HS02004824 CONDUIT     81.58     0  03:01      0.25    0.04    0.47
  HS02004770HS02004777 CONDUIT     90.21     0  03:01      0.32    0.16    0.41
  HS02004799HS02004480 CONDUIT    226.97     0  03:01      0.78    0.29    0.42
  HS02004792HS02004799 CONDUIT    206.60     0  03:01      0.88    0.13    0.33
  HS02004788HS02004792 CONDUIT    118.94     0  03:01      1.01    0.08    0.17
  HS02004785HS02004788 CONDUIT     89.52     0  03:02      0.66    0.67    0.19
  HS02004777HS02004785 CONDUIT     89.64     0  03:01      0.38    0.11    0.33
  HS02004480HS02004478 CONDUIT    269.12     0  03:01      1.20    1.13    0.32
  HS02004479HS02004480 CONDUIT     44.17     0  03:02      0.23    0.04    0.40
  HS02004862HS02004870 CONDUIT     44.23     0  03:01      0.64    0.05    0.10
  HS02004848HS02004852 CONDUIT     20.44     0  03:01      0.44    0.02    0.07
  HS02004856HS02004862 CONDUIT     30.57     0  03:01      0.47    0.03    0.09
  HS02004852HS02004856 CONDUIT     20.26     0  03:01      0.24    0.02    0.12
  HS02004802HS02004478 CONDUIT    106.59     0  03:02      0.45    0.09    0.35
  HS02004478WS02006287 CONDUIT    375.27     0  03:01      1.68    0.11    0.25
  HS02004817HS02004807 CONDUIT     82.18     0  03:01      0.19    0.05    0.62
  HS02004807HS02004802 CONDUIT    106.49     0  03:01      0.38    0.20    0.40
  YS02001759YS02001757 CONDUIT    658.94     0  02:54      0.84    0.47    1.00
  YS02001762YS02001759 CONDUIT    335.29     0  02:54      0.43    0.39    1.00
  YS02001765YS02001762 CONDUIT    335.13     0  02:54      0.43    0.31    1.00
  YS02001770YS02001767 CONDUIT    334.61     0  02:54      0.43    1.33    1.00
  YS02001774YS02001770 CONDUIT    218.12     0  03:14      0.28    0.14    1.00
  YS02001779YS02001774 CONDUIT    218.47     0  03:11      0.28    0.11    1.00
  YS02001649YS02001757 CONDUIT    928.34     0  02:50      1.18    0.56    1.00
  YS02001767YS02001765 CONDUIT    335.25     0  02:54      0.43    0.42    1.00
  YS02006561YS02001783 CONDUIT    964.08     0  03:00      2.11    0.50    1.00
  YS02001783YS02001784 CONDUIT    964.14     0  03:00      1.92    1.33    1.00
  YS02001784YS02001785 CONDUIT    965.13     0  03:00      1.92    2.25    1.00
  YS02001788YS02001790 CONDUIT    965.22     0  03:01      2.28    0.71    1.00
  YS02001790YS02001791 CONDUIT    965.32     0  03:00      2.80    1.05    1.00
  YS02001791YS02001793 CONDUIT    965.53     0  03:00      5.58    0.41    1.00
  YS02001910YS02001907 CONDUIT    447.00     0  02:54      0.57    0.25    1.00
  YS02001786YS02001788 CONDUIT    965.15     0  03:00      2.20    1.86    1.00
  YS02001915YS02001910 CONDUIT    447.25     0  02:54      0.57    0.22    1.00
  YS02001918YS02001915 CONDUIT    212.91     0  02:54      0.44    0.12    1.00
  YS02001923YS02001920 CONDUIT    209.45     0  02:54      0.68    0.09    1.00
  YS02001926YS02001923 CONDUIT    235.37     0  02:54      0.79    0.34    0.89
  YS02001929YS02001926 CONDUIT    188.03     0  02:54      0.84    0.09    0.80
  YS02001920YS02001918 CONDUIT    212.25     0  02:54      0.67    0.21    1.00
  YS02001629YS02163301 CONDUIT    206.71     0  02:49      0.26    0.25    1.00
  YS02001619YS02001622 CONDUIT    257.60     0  03:01      0.61    0.38    1.00
  YS02001622YS02001625 CONDUIT    257.39     0  03:01      0.33    0.14    1.00
  YS02001625YS02001629 CONDUIT    206.46     0  02:49      0.26    0.10    1.00
  YS02163301YS02001633 CONDUIT    206.59     0  02:49      0.26    0.19    1.00
  YS02163601YS02164001 CONDUIT    435.09     0  02:49      0.55    0.39    1.00
  YS02164001YS02001641 CONDUIT    435.45     0  02:49      0.55    0.59    1.00
  YS02001641YS02001644 CONDUIT    435.48     0  02:49      0.55    1.41    1.00
  YS02001647YS02001649 CONDUIT    660.37     0  02:49      0.84    0.35    1.00
  YS02006553YS02006556 CONDUIT    667.04     0  03:17      0.85    0.57    1.00
  YS02006556YS02006558 CONDUIT    667.25     0  03:17      0.85    0.53    1.00
  YSB6556YSB1171       CONDUIT     24.81     0  03:03      0.09    0.03    0.67
  YS02001907YS02006553 CONDUIT    667.22     0  03:17      0.74    0.78    1.00
  YS02006558YS02006561 CONDUIT    964.11     0  03:00      3.41    2.13    1.00
  YS02001633YS02163601 CONDUIT    434.86     0  02:49      0.55    0.46    1.00
  YS02001644YS02001647 CONDUIT    660.43     0  02:49      0.84    0.39    1.00
  YS02001745YS02001748 CONDUIT    558.73     0  02:41      1.48    0.22    0.94
  YS02001748YS02001751 CONDUIT    307.28     0  03:01      1.05    0.16    1.00
  YS02001751YS02001754 CONDUIT    307.28     0  03:01      0.88    0.15    1.00
  YS02001754YS02001757 CONDUIT    307.44     0  03:01      0.39    0.12    1.00
  YS02001882YS02001884 CONDUIT     30.63     0  02:45      0.09    0.04    1.00
  YS02001884YS02001887 CONDUIT     62.55     0  02:39      0.09    0.08    1.00
  YS02001890YS02001895 CONDUIT    453.65     0  03:01      0.58    0.21    1.00
  YS02001895YS02001898 CONDUIT    453.61     0  03:01      0.58    0.79    1.00
  YS02001898YS02001901 CONDUIT    453.64     0  03:01      0.58    0.29    1.00
  YS02001901YS02001904 CONDUIT    453.52     0  03:01      0.58    0.70    1.00
  YS02001904YS02001907 CONDUIT    453.57     0  03:01      0.58    0.16    1.00
  YS02001887YS02001890 CONDUIT    453.52     0  03:01      0.58    0.78    1.00
  YS02001652YS02001649 CONDUIT    370.48     0  03:02      0.50    0.18    1.00
  YS02001655YS02001652 CONDUIT    370.10     0  03:02      0.93    0.18    1.00
  YS02001658YS02001655 CONDUIT    370.35     0  03:02      1.21    0.16    1.00
  YS02001661YS02001658 CONDUIT    550.51     0  02:39      1.56    0.22    1.00
  YS02001664YS02001661 CONDUIT    690.33     0  02:53      1.51    0.22    0.71
  YSB1154YSB6556       CONDUIT     24.91     0  03:01      0.18    0.04    0.56
  YSB1174YSB1171       CONDUIT     18.78     0  03:01      0.07    0.03    0.68
  YSB1171HS02004479    CONDUIT     42.82     0  03:02      0.54    0.03    0.53
  HS02004881HS02006253 CONDUIT     79.15     0  03:01      1.83    0.02    0.30
  YS02001793JiankangQianchi CONDUIT    965.52     0  03:00     13.02    0.08    1.00
  YS02001757CaochengTiaoxuchi CONDUIT   1765.35     0  02:50      2.34    0.78    1.00
  WSF200WS02003060     CONDUIT    650.44     0  02:58      1.86    0.14    0.36
  1                    CONDUIT    952.44     0  03:06      3.28    0.33    0.40
  2                    CONDUIT    212.20     0  02:50      5.93    0.51    0.51
  3                    CONDUIT    261.01     0  02:51      8.41    0.42    0.46
  4                    CONDUIT      0.00     0  00:00      0.00    0.00    0.00
  CC-Pump-1            PUMP       200.00     0  03:10              1.00
  CC-Pump-2            PUMP       200.00     0  02:30              1.00
  JK-Pump-1            PUMP         0.00     0  00:00              0.00
  JK-Pump-2            PUMP       300.00     0  00:00              1.00
  XR-Pump-1            PUMP        95.00     0  00:00              1.00
  XR-Pump-2            PUMP        95.00     0  00:00              1.00
  XR-Pump-3            PUMP         0.00     0  00:00              0.00
  XR-Pump-4            PUMP        95.00     0  01:50              1.00
  
  
  ***************************
  Flow Classification Summary
  ***************************
  
  -------------------------------------------------------------------------------------
                      Adjusted    ---------- Fraction of Time in Flow Class ---------- 
                       /Actual         Up    Down  Sub   Sup   Up    Down  Norm  Inlet 
  Conduit               Length    Dry  Dry   Dry   Crit  Crit  Crit  Crit  Ltd   Ctrl  
  -------------------------------------------------------------------------------------
  WS02003066WSF200        1.00   0.06  0.00  0.00  0.00  0.94  0.00  0.00  0.60  0.00
  WS02006287WS02006284    1.00   0.04  0.01  0.00  0.59  0.36  0.00  0.00  0.65  0.00
  WS02006284WS02006280    1.00   0.04  0.00  0.00  0.00  0.00  0.00  0.96  0.00  0.00
  WS02006280WS02006229    1.00   0.04  0.00  0.00  0.00  0.00  0.00  0.96  0.00  0.00
  WS02006229WS02006228    1.00   0.00  0.00  0.00  0.99  0.00  0.00  0.01  0.00  0.00
  WS02006256WS02006235    1.00   0.00  0.00  0.00  1.00  0.00  0.00  0.00  0.00  0.00
  WS02006253WS02006251    1.00   0.03  0.01  0.00  0.96  0.00  0.00  0.00  0.00  0.00
  WS02006252WS02006251    1.00   0.07  0.00  0.00  0.00  0.00  0.93  0.00  0.00  0.00
  WS02006251WS02006249    1.00   0.00  0.00  0.00  1.00  0.00  0.00  0.00  0.27  0.00
  WS02006249WS02006248    1.00   0.00  0.02  0.00  0.86  0.00  0.11  0.00  0.00  0.00
  WS02006248WS02006247    1.00   0.02  0.00  0.00  0.98  0.00  0.00  0.00  0.15  0.00
  WS02006247WS02006245    1.00   0.02  0.00  0.00  0.98  0.00  0.00  0.00  0.00  0.00
  WS02006245WS02006243    1.00   0.01  0.00  0.00  0.95  0.00  0.00  0.03  0.01  0.00
  WS02006243WS02006242    1.00   0.01  0.00  0.00  0.99  0.00  0.00  0.00  0.21  0.00
  WS02006242WS02006240    1.00   0.00  0.00  0.00  1.00  0.00  0.00  0.00  0.00  0.00
  WS02006240WS02006239    1.00   0.00  0.00  0.00  0.97  0.00  0.00  0.03  0.01  0.00
  WS02006239WS02006238    1.00   0.00  0.00  0.00  1.00  0.00  0.00  0.00  0.02  0.00
  WS02006238WS02006235    1.00   0.00  0.00  0.00  1.00  0.00  0.00  0.00  0.00  0.00
  WS02006235WS02006234    1.00   0.00  0.00  0.00  0.96  0.00  0.04  0.00  0.00  0.00
  WS02006234WS02006232    1.00   0.00  0.00  0.00  1.00  0.00  0.00  0.00  0.11  0.00
  WS02006232WS02006231    1.00   0.00  0.00  0.00  0.99  0.00  0.00  0.00  0.00  0.00
  WS02006231WS02006230    1.00   0.00  0.00  0.00  0.65  0.00  0.34  0.00  0.00  0.00
  WS02006230WS02006229    1.00   0.00  0.00  0.00  0.99  0.00  0.00  0.01  0.01  0.00
  WS02006228WS02006109    1.00   0.00  0.00  0.00  1.00  0.00  0.00  0.00  0.00  0.00
  WS02006116WS02004401    1.00   0.02  0.00  0.00  0.98  0.00  0.00  0.00  0.00  0.00
  WS02006115WS02006116    1.00   0.02  0.00  0.00  0.97  0.00  0.00  0.01  0.00  0.00
  WS02006113WS02006111    1.00   0.02  0.00  0.00  0.00  0.98  0.00  0.00  0.11  0.00
  WS02006112WS02006115    1.00   0.02  0.00  0.00  0.97  0.00  0.00  0.00  0.00  0.00
  WS02006111WS02006112    1.00   0.02  0.00  0.00  0.98  0.00  0.00  0.00  0.92  0.00
  WS02006110WS02006113    1.00   0.01  0.01  0.00  0.98  0.00  0.00  0.00  0.00  0.00
  WS02006109WS02006110    1.00   0.00  0.01  0.00  0.98  0.00  0.01  0.00  0.00  0.00
  WS02004411WS02004412    1.00   0.04  0.00  0.00  0.96  0.00  0.00  0.00  0.00  0.00
  WS02004401WS02004402    1.00   0.02  0.00  0.00  0.98  0.00  0.00  0.00  0.00  0.00
  WS02004413WS02003067    1.00   0.04  0.01  0.00  0.00  0.00  0.95  0.00  0.00  0.00
  WS02004412WS02004413    1.00   0.04  0.00  0.00  0.96  0.00  0.00  0.00  0.03  0.00
  WS02004410WS02004411    1.00   0.04  0.00  0.00  0.96  0.00  0.00  0.00  0.04  0.00
  WS02004409WS02004410    1.00   0.04  0.00  0.00  0.96  0.00  0.00  0.00  0.03  0.00
  WS02004407WS02004409    1.00   0.04  0.00  0.00  0.96  0.00  0.00  0.00  0.89  0.00
  WS02004406WS02004407    1.00   0.00  0.04  0.00  0.96  0.00  0.00  0.00  0.00  0.00
  WS02004405WS02004406    1.00   0.00  0.00  0.00  1.00  0.00  0.00  0.00  0.00  0.00
  WS02004404WS02004405    1.00   0.00  0.00  0.00  1.00  0.00  0.00  0.00  0.00  0.00
  WS02004403WS02004404    1.00   0.00  0.03  0.00  0.97  0.00  0.00  0.00  0.01  0.00
  WS02004402WS02004403    1.00   0.02  0.00  0.00  0.98  0.00  0.00  0.00  0.00  0.00
  WS02004139WS02001211    1.00   0.00  0.00  0.00  1.00  0.00  0.00  0.00  0.00  0.00
  WS02004138WS02004139    1.00   0.00  0.00  0.00  0.99  0.01  0.00  0.00  1.00  0.00
  WS02003067WS02003066    1.00   0.05  0.01  0.00  0.94  0.00  0.00  0.00  0.00  0.00
  WS02001213WS02003059    1.00   0.00  0.00  0.00  0.99  0.00  0.00  0.00  0.00  0.00
  WS02001212WS02001213    1.00   0.00  0.00  0.00  0.81  0.00  0.19  0.00  0.00  0.00
  WS02001211WS02001212    1.00   0.00  0.00  0.00  1.00  0.00  0.00  0.00  0.00  0.00
  WS02003072WS02003073    1.00   0.00  0.00  0.00  0.00  0.00  0.00  1.00  0.00  0.00
  WS02003069WS02003072    1.00   0.00  0.00  0.00  0.99  0.01  0.00  0.00  0.23  0.00
  WS02003060WS02003069    1.00   0.00  0.00  0.00  0.98  0.02  0.00  0.00  0.15  0.00
  WS02003059WS02003060    1.00   0.00  0.00  0.00  1.00  0.00  0.00  0.00  0.01  0.00
  HS02004901HS02004770    1.00   0.04  0.00  0.00  0.96  0.00  0.00  0.00  0.00  0.00
  HS02004876HS02004881    1.00   0.02  0.00  0.00  0.89  0.09  0.00  0.00  0.00  0.00
  HS02004870HS02004876    1.00   0.01  0.00  0.00  0.99  0.00  0.00  0.00  0.95  0.00
  HS02004842HS02004848    1.00   0.00  0.04  0.00  0.96  0.00  0.00  0.00  0.58  0.00
  HS02004837HS02004842    1.00   0.00  0.00  0.00  0.99  0.01  0.00  0.00  0.11  0.00
  HS02004830HS02004837    1.00   0.00  0.00  0.00  1.00  0.00  0.00  0.00  0.99  0.00
  HS02004824HS02004830    1.00   0.00  0.00  0.00  1.00  0.00  0.00  0.00  0.00  0.00
  HS02004817HS02004824    1.00   0.00  0.00  0.00  1.00  0.00  0.00  0.00  1.00  0.00
  HS02004770HS02004777    1.00   0.00  0.04  0.00  0.96  0.00  0.00  0.00  0.03  0.00
  HS02004799HS02004480    1.00   0.00  0.02  0.00  0.95  0.00  0.02  0.00  0.00  0.00
  HS02004792HS02004799    1.00   0.00  0.00  0.00  0.99  0.01  0.00  0.00  0.98  0.00
  HS02004788HS02004792    1.00   0.00  0.00  0.00  0.99  0.01  0.00  0.00  0.98  0.00
  HS02004785HS02004788    1.00   0.00  0.00  0.00  1.00  0.00  0.00  0.00  0.00  0.00
  HS02004777HS02004785    1.00   0.00  0.00  0.00  1.00  0.00  0.00  0.00  0.14  0.00
  HS02004480HS02004478    1.00   0.04  0.00  0.00  0.65  0.00  0.00  0.30  0.00  0.00
  HS02004479HS02004480    1.00   0.03  0.00  0.00  0.97  0.00  0.00  0.00  0.12  0.00
  HS02004862HS02004870    1.00   0.00  0.00  0.00  1.00  0.00  0.00  0.00  0.05  0.00
  HS02004848HS02004852    1.00   0.04  0.00  0.00  0.96  0.00  0.00  0.00  0.61  0.00
  HS02004856HS02004862    1.00   0.00  0.05  0.00  0.95  0.00  0.00  0.00  0.80  0.00
  HS02004852HS02004856    1.00   0.04  0.00  0.00  0.96  0.00  0.00  0.00  0.85  0.00
  HS02004802HS02004478    1.00   0.04  0.00  0.00  0.96  0.00  0.00  0.00  0.03  0.00
  HS02004478WS02006287    1.00   0.05  0.00  0.00  0.72  0.23  0.00  0.00  0.66  0.00
  HS02004817HS02004807    1.00   0.00  0.04  0.00  0.96  0.00  0.00  0.00  0.01  0.00
  HS02004807HS02004802    1.00   0.04  0.00  0.00  0.95  0.00  0.00  0.00  0.00  0.00
  YS02001759YS02001757    1.00   0.00  0.00  0.00  1.00  0.00  0.00  0.00  0.16  0.00
  YS02001762YS02001759    1.00   0.00  0.00  0.00  1.00  0.00  0.00  0.00  0.04  0.00
  YS02001765YS02001762    1.00   0.00  0.00  0.00  1.00  0.00  0.00  0.00  0.16  0.00
  YS02001770YS02001767    1.00   0.00  0.00  0.00  1.00  0.00  0.00  0.00  0.00  0.00
  YS02001774YS02001770    1.00   0.00  0.04  0.00  0.96  0.00  0.00  0.00  0.04  0.00
  YS02001779YS02001774    1.00   0.00  0.00  0.00  1.00  0.00  0.00  0.00  0.21  0.00
  YS02001649YS02001757    1.00   0.00  0.00  0.00  1.00  0.00  0.00  0.00  0.17  0.00
  YS02001767YS02001765    1.00   0.00  0.00  0.00  1.00  0.00  0.00  0.00  0.00  0.00
  YS02006561YS02001783    1.00   0.06  0.00  0.00  0.44  0.51  0.00  0.00  0.56  0.00
  YS02001783YS02001784    1.00   0.00  0.06  0.00  0.94  0.00  0.00  0.00  0.01  0.00
  YS02001784YS02001785    1.00   0.00  0.00  0.00  1.00  0.00  0.00  0.00  0.20  0.00
  YS02001788YS02001790    1.00   0.00  0.00  0.00  0.53  0.47  0.00  0.00  0.50  0.00
  YS02001790YS02001791    1.00   0.00  0.00  0.00  0.50  0.50  0.00  0.00  0.37  0.00
  YS02001791YS02001793    1.00   0.00  0.00  0.00  0.52  0.48  0.00  0.00  0.02  0.00
  YS02001910YS02001907    1.00   0.00  0.00  0.00  0.98  0.00  0.00  0.02  0.13  0.00
  YS02001786YS02001788    1.00   0.00  0.00  0.00  0.51  0.49  0.00  0.00  0.00  0.00
  YS02001915YS02001910    1.00   0.00  0.00  0.00  0.99  0.01  0.00  0.00  0.18  0.00
  YS02001918YS02001915    1.00   0.00  0.01  0.00  0.98  0.01  0.00  0.00  0.58  0.00
  YS02001923YS02001920    1.00   0.00  0.00  0.00  1.00  0.00  0.00  0.00  0.85  0.00
  YS02001926YS02001923    1.00   0.00  0.03  0.00  0.14  0.00  0.82  0.00  0.00  0.00
  YS02001929YS02001926    1.00   0.00  0.04  0.00  0.96  0.00  0.00  0.00  0.78  0.00
  YS02001920YS02001918    1.00   0.00  0.01  0.00  0.99  0.00  0.00  0.00  0.00  0.00
  YS02001629YS02163301    1.00   0.05  0.00  0.00  0.95  0.00  0.00  0.00  0.00  0.00
  YS02001619YS02001622    1.00   0.04  0.00  0.00  0.96  0.00  0.00  0.00  0.00  0.00
  YS02001622YS02001625    1.00   0.04  0.00  0.00  0.96  0.00  0.00  0.00  0.07  0.00
  YS02001625YS02001629    1.00   0.04  0.01  0.00  0.93  0.00  0.01  0.00  0.00  0.00
  YS02163301YS02001633    1.00   0.00  0.05  0.00  0.95  0.00  0.00  0.00  0.00  0.00
  YS02163601YS02164001    1.00   0.00  0.03  0.00  0.97  0.00  0.00  0.00  0.00  0.00
  YS02164001YS02001641    1.00   0.01  0.03  0.00  0.97  0.00  0.00  0.00  0.06  0.00
  YS02001641YS02001644    1.00   0.00  0.01  0.00  0.99  0.00  0.00  0.00  0.00  0.00
  YS02001647YS02001649    1.00   0.00  0.05  0.00  0.95  0.00  0.00  0.00  0.01  0.00
  YS02006553YS02006556    1.00   0.01  0.00  0.00  0.99  0.00  0.00  0.00  0.03  0.00
  YS02006556YS02006558    1.00   0.00  0.00  0.00  1.00  0.00  0.00  0.00  0.00  0.00
  YSB6556YSB1171          1.00   0.03  0.01  0.00  0.96  0.00  0.00  0.00  0.00  0.00
  YS02001907YS02006553    1.00   0.00  0.02  0.00  0.98  0.00  0.00  0.00  0.00  0.00
  YS02006558YS02006561    1.00   0.06  0.00  0.00  0.19  0.76  0.00  0.00  0.48  0.00
  YS02001633YS02163601    1.00   0.00  0.01  0.00  0.99  0.00  0.00  0.00  0.16  0.00
  YS02001644YS02001647    1.00   0.00  0.05  0.00  0.95  0.00  0.00  0.00  0.00  0.00
  YS02001745YS02001748    1.00   0.00  0.00  0.00  0.89  0.01  0.00  0.10  0.04  0.00
  YS02001748YS02001751    1.00   0.00  0.00  0.00  0.98  0.02  0.00  0.00  0.15  0.00
  YS02001751YS02001754    1.00   0.00  0.00  0.00  0.94  0.00  0.00  0.06  0.02  0.00
  YS02001754YS02001757    1.00   0.00  0.00  0.00  0.99  0.01  0.00  0.00  0.20  0.00
  YS02001882YS02001884    1.00   0.05  0.00  0.00  0.95  0.00  0.00  0.00  0.00  0.00
  YS02001884YS02001887    1.00   0.03  0.01  0.00  0.96  0.00  0.00  0.00  0.00  0.00
  YS02001890YS02001895    1.00   0.00  0.05  0.00  0.95  0.00  0.00  0.00  0.00  0.00
  YS02001895YS02001898    1.00   0.05  0.00  0.00  0.94  0.00  0.01  0.00  0.00  0.00
  YS02001898YS02001901    1.00   0.05  0.00  0.00  0.95  0.00  0.00  0.00  0.02  0.00
  YS02001901YS02001904    1.00   0.05  0.00  0.00  0.95  0.00  0.00  0.00  0.00  0.00
  YS02001904YS02001907    1.00   0.00  0.05  0.00  0.95  0.00  0.00  0.00  0.00  0.00
  YS02001887YS02001890    1.00   0.00  0.00  0.00  0.97  0.00  0.02  0.00  0.00  0.00
  YS02001652YS02001649    1.00   0.00  0.00  0.00  1.00  0.00  0.00  0.00  0.18  0.00
  YS02001655YS02001652    1.00   0.00  0.00  0.00  0.94  0.00  0.00  0.06  0.02  0.00
  YS02001658YS02001655    1.00   0.00  0.04  0.00  0.93  0.02  0.00  0.00  0.11  0.00
  YS02001661YS02001658    1.00   0.04  0.00  0.00  0.89  0.06  0.00  0.00  0.06  0.00
  YS02001664YS02001661    1.00   0.04  0.00  0.00  0.88  0.08  0.00  0.00  0.22  0.00
  YSB1154YSB6556          1.00   0.04  0.00  0.00  0.96  0.00  0.00  0.00  0.02  0.00
  YSB1174YSB1171          1.00   0.03  0.01  0.00  0.96  0.00  0.00  0.00  0.00  0.00
  YSB1171HS02004479       1.00   0.03  0.00  0.00  0.97  0.00  0.00  0.00  0.11  0.00
  HS02004881HS02006253    1.00   0.03  0.00  0.00  0.69  0.04  0.00  0.24  0.57  0.00
  YS02001793JiankangQianchi    1.00   0.00  0.00  0.00  0.68  0.32  0.00  0.00  0.14  0.00
  YS02001757CaochengTiaoxuchi    1.00   0.00  0.07  0.00  0.93  0.00  0.00  0.00  0.00  0.00
  WSF200WS02003060        1.00   0.00  0.06  0.00  0.62  0.32  0.00  0.00  0.14  0.00
  1                       1.00   0.00  0.00  0.00  0.00  1.00  0.00  0.00  0.35  0.00
  2                       1.00   0.64  0.00  0.00  0.00  0.36  0.00  0.00  0.07  0.00
  3                       1.00   0.07  0.00  0.00  0.00  0.93  0.00  0.00  0.22  0.00
  4                       1.00   1.00  0.00  0.00  0.00  0.00  0.00  0.00  0.00  0.00
  
  
  *************************
  Conduit Surcharge Summary
  *************************
  
  ----------------------------------------------------------------------------
                                                           Hours        Hours 
                         --------- Hours Full --------   Above Full   Capacity
  Conduit                Both Ends  Upstream  Dnstream   Normal Flow   Limited
  ----------------------------------------------------------------------------
  WS02006229WS02006228        2.01      2.29      2.01      4.33         2.01
  WS02006256WS02006235        6.09      6.09      6.78      3.53         0.01
  WS02006253WS02006251        0.01      0.01      0.05      0.01         0.01
  WS02006252WS02006251        0.88      0.88      1.86      1.61         0.01
  WS02006251WS02006249        0.01      0.01      0.01      0.96         0.01
  WS02006249WS02006248        0.01      0.01      0.01      3.88         0.01
  WS02006248WS02006247        0.01      0.01      0.03      0.01         0.01
  WS02006247WS02006245        0.01      0.06      0.01      4.52         0.01
  WS02006245WS02006243        0.05      0.05      0.23      0.01         0.01
  WS02006243WS02006242        0.33      0.33      1.17      0.01         0.01
  WS02006242WS02006240        0.80      0.80      1.68      1.68         0.01
  WS02006240WS02006239        0.86      0.86      0.94      0.01         0.01
  WS02006239WS02006238        1.51      1.51      1.65      0.01         0.01
  WS02006238WS02006235        1.48      1.48      2.09      0.01         0.01
  WS02006235WS02006234        0.97      0.97      1.32      6.11         0.01
  WS02006234WS02006232        1.06      1.06      2.22      0.01         0.01
  WS02006232WS02006231        0.75      0.75      2.22      0.01         0.01
  WS02006231WS02006230        0.56      0.56      0.79      6.12         0.01
  WS02006230WS02006229        3.45      4.08      3.45      6.22         3.45
  WS02006228WS02006109        2.12      2.95      2.12      5.24         2.12
  WS02006112WS02006115        0.01      0.01      1.17      0.01         0.01
  WS02006111WS02006112        0.01      0.01      4.53      0.01         0.01
  WS02006110WS02006113        0.01      0.01      2.63      0.01         0.01
  WS02006109WS02006110        0.92      0.92      2.95      0.93         0.01
  WS02004406WS02004407        0.01      0.01      0.33      0.01         0.01
  WS02004405WS02004406        0.33      0.50      0.33      1.01         0.33
  WS02004404WS02004405        0.50      0.64      0.50      6.00         0.50
  WS02004403WS02004404        0.01      0.01      0.64      0.01         0.01
  WS02003072WS02003073        0.01      0.01      0.01      5.02         0.01
  HS02004480HS02004478        0.01      0.01      0.01      0.25         0.01
  YS02001759YS02001757        5.66      5.66      5.74      0.01         0.01
  YS02001762YS02001759        5.64      5.64      5.66      0.01         0.01
  YS02001765YS02001762        5.61      5.61      5.64      0.01         0.01
  YS02001770YS02001767        5.58      5.58      5.59      0.31         0.79
  YS02001774YS02001770        5.57      5.57      5.63      0.01         0.01
  YS02001779YS02001774        5.41      5.41      5.63      0.01         0.01
  YS02001649YS02001757        5.64      5.64      5.74      0.01         0.01
  YS02001767YS02001765        5.59      5.59      5.61      0.01         0.01
  YS02006561YS02001783        0.66      0.66      1.28      0.01         0.01
  YS02001783YS02001784        1.28      1.28      1.33      1.08         1.01
  YS02001784YS02001785        1.28      1.33      1.28      2.07         1.28
  YS02001788YS02001790        1.27      1.27      2.66      0.01         0.01
  YS02001790YS02001791        2.66      2.66      2.79      0.49         0.49
  YS02001791YS02001793        2.79      2.79      3.06      0.01         0.01
  YS02001910YS02001907        1.00      1.00      1.50      0.01         0.01
  YS02001786YS02001788        1.27      1.28      1.27      1.67         1.27
  YS02001915YS02001910        0.78      0.78      1.00      0.01         0.01
  YS02001918YS02001915        0.53      0.53      0.78      0.01         0.01
  YS02001923YS02001920        0.29      0.29      0.56      0.01         0.01
  YS02001920YS02001918        0.53      0.53      0.56      0.01         0.01
  YS02001629YS02163301        5.57      5.57      5.58      0.01         0.01
  YS02001619YS02001622        5.26      5.26      5.27      0.01         0.01
  YS02001622YS02001625        5.27      5.27      5.54      0.01         0.01
  YS02001625YS02001629        5.26      5.26      5.54      0.01         0.01
  YS02163301YS02001633        5.58      5.58      5.61      0.01         0.01
  YS02163601YS02164001        5.61      5.61      5.64      0.01         0.01
  YS02164001YS02001641        5.61      5.61      5.62      0.01         0.02
  YS02001641YS02001644        5.62      5.62      5.62      1.22         1.41
  YS02001647YS02001649        5.52      5.52      5.64      0.01         0.01
  YS02006553YS02006556        1.20      1.20      1.57      0.01         0.01
  YS02006556YS02006558        1.37      1.37      1.64      0.01         0.01
  YS02001907YS02006553        2.09      2.09      2.30      0.01         0.01
  YS02006558YS02006561        0.89      1.17      0.89      1.94         0.89
  YS02001633YS02163601        5.60      5.60      5.64      0.01         0.01
  YS02001644YS02001647        5.52      5.52      5.62      0.01         0.01
  YS02001745YS02001748        0.01      0.01      5.06      0.01         0.01
  YS02001748YS02001751        5.12      5.12      5.24      0.01         0.01
  YS02001751YS02001754        5.24      5.24      5.42      0.01         0.01
  YS02001754YS02001757        5.49      5.49      5.74      0.01         0.01
  YS02001882YS02001884        0.80      0.80      0.83      0.01         0.01
  YS02001884YS02001887        0.89      0.89      0.92      0.01         0.01
  YS02001890YS02001895        0.76      0.76      1.02      0.01         0.01
  YS02001895YS02001898        0.75      0.75      0.76      0.01         0.01
  YS02001898YS02001901        0.77      0.77      0.88      0.01         0.01
  YS02001901YS02001904        0.86      0.86      0.88      0.01         0.01
  YS02001904YS02001907        0.86      0.86      1.59      0.01         0.01
  YS02001887YS02001890        0.95      0.95      0.99      0.01         0.01
  YS02001652YS02001649        5.53      5.53      5.64      0.01         0.01
  YS02001655YS02001652        5.28      5.28      5.46      0.01         0.01
  YS02001658YS02001655        5.09      5.09      5.28      0.01         0.01
  YS02001661YS02001658        0.22      0.22      5.09      0.01         0.01
  YS02001664YS02001661        0.01      0.01      1.10      0.01         0.01
  YS02001793JiankangQianchi        2.99      2.99      3.99      0.01         0.01
  YS02001757CaochengTiaoxuchi        4.90      4.90      5.74      0.01         0.01
  
  
  ***************
  Pumping Summary
  ***************
  
  ---------------------------------------------------------------------------------------------------------
                                                  Min       Avg       Max     Total     Power    % Time Off
                        Percent   Number of      Flow      Flow      Flow    Volume     Usage    Pump Curve
  Pump                 Utilized   Start-Ups       LPS       LPS       LPS  10^6 ltr     Kw-hr    Low   High
  ---------------------------------------------------------------------------------------------------------
  CC-Pump-1               52.41           5      0.00    118.24    200.00     1.720      2.64    0.0   14.2
  CC-Pump-2               60.92           3      0.00    150.87    200.00     2.533      3.12    0.0    5.2
  JK-Pump-1                0.00           0      0.00      0.00      0.00     0.000      0.00    0.0    0.0
  JK-Pump-2              100.00           1      0.00    247.16    300.00     5.639     51.10    0.0    0.0
  XR-Pump-1               97.86           7      0.00     76.06     95.00     2.052     12.30    0.0    0.0
  XR-Pump-2              100.00           2      0.00     87.81     95.00     2.451     14.80    0.0    0.0
  XR-Pump-3                0.00           0      0.00      0.00      0.00     0.000      0.00    0.0    0.0
  XR-Pump-4               76.58           9      0.00     63.00     95.00     1.339      7.18    0.0    0.0
  

  Analysis begun on:  Thu Jan  6 18:05:03 2022
  Analysis ended on:  Thu Jan  6 18:05:07 2022
  Total elapsed time: 00:00:04