
  EPA STORM WATER MANAGEMENT MODEL - VERSION 5.1 (Build 5.3.0.dev0)
  --------------------------------------------------------------

  WARNING 04: minimum elevation drop used for Conduit WS02004404WS02004405
  WARNING 03: negative offset ignored for Link YS02001904YS02001907
  
  *********************************************************
  NOTE: The summary statistics displayed in this report are
  based on results found at every computational time step,  
  not just on results from each reporting time step.
  *********************************************************
  
  ****************
  Analysis Options
  ****************
  Flow Units ............... LPS
  Process Models:
    Rainfall/Runoff ........ YES
    RDII ................... NO
    Snowmelt ............... NO
    Groundwater ............ NO
    Flow Routing ........... YES
    Ponding Allowed ........ NO
    Water Quality .......... NO
  Infiltration Method ...... HORTON
  Flow Routing Method ...... DYNWAVE
  Surcharge Method ......... EXTRAN
  Starting Date ............ 08/28/2015 08:00:00
  Ending Date .............. 08/28/2015 15:50:00
  Antecedent Dry Days ...... 8.0
  Report Time Step ......... 00:01:00
  Wet Time Step ............ 00:01:00
  Dry Time Step ............ 00:01:00
  Routing Time Step ........ 5.00 sec
  Variable Time Step ....... YES
  Maximum Trials ........... 8
  Number of Threads ........ 4
  Head Tolerance ........... 0.001500 m
  
  
  **************************        Volume         Depth
  Runoff Quantity Continuity     hectare-m            mm
  **************************     ---------       -------
  Total Precipitation ......         5.556        12.164
  Evaporation Loss .........         0.000         0.000
  Infiltration Loss ........         1.427         3.124
  Surface Runoff ...........         3.072         6.726
  Final Storage ............         1.058         2.316
  Continuity Error (%) .....        -0.016
  
  
  **************************        Volume        Volume
  Flow Routing Continuity        hectare-m      10^6 ltr
  **************************     ---------     ---------
  Dry Weather Inflow .......         0.616         6.165
  Wet Weather Inflow .......         3.071        30.708
  Groundwater Inflow .......         0.000         0.000
  RDII Inflow ..............         0.000         0.000
  External Inflow ..........         0.102         1.024
  External Outflow .........         1.824        18.244
  Flooding Loss ............         1.409        14.087
  Evaporation Loss .........         0.000         0.000
  Exfiltration Loss ........         0.000         0.000
  Initial Stored Volume ....         0.076         0.761
  Final Stored Volume ......         0.638         6.384
  Continuity Error (%) .....        -0.149
  
  
  *************************
  Highest Continuity Errors
  *************************
  Node HS02004842 (16.24%)
  Node YS02001884 (11.70%)
  Node YSB1171 (3.12%)
  Node HS02004817 (2.99%)
  Node YS02001774 (2.40%)
  
  
  ***************************
  Time-Step Critical Elements
  ***************************
  Link WS02006252WS02006251 (47.03%)
  Link 3 (44.00%)
  Link WS02006238WS02006235 (2.22%)
  Link WS02006280WS02006229 (1.74%)
  Link WS02004404WS02004405 (1.20%)
  
  
  ********************************
  Highest Flow Instability Indexes
  ********************************
  Link YS02001629YS02163301 (41)
  Link YS02163601YS02164001 (40)
  Link YS02163301YS02001633 (40)
  Link YS02001619YS02001622 (40)
  Link WS02006113WS02006111 (39)
  
  
  *************************
  Routing Time Step Summary
  *************************
  Minimum Time Step           :     0.50 sec
  Average Time Step           :     0.83 sec
  Maximum Time Step           :     5.00 sec
  Percent in Steady State     :    -0.00
  Average Iterations per Step :     4.66
  Percent Not Converging      :    21.42
  
  
  ***************************
  Subcatchment Runoff Summary
  ***************************
  
  ------------------------------------------------------------------------------------------------------------------------------
                            Total      Total      Total      Total     Imperv       Perv      Total       Total     Peak  Runoff
                           Precip      Runon       Evap      Infil     Runoff     Runoff     Runoff      Runoff   Runoff   Coeff
  Subcatchment                 mm         mm         mm         mm         mm         mm         mm    10^6 ltr      LPS
  ------------------------------------------------------------------------------------------------------------------------------
  sub0                      12.16       0.00       0.00       0.85      10.05       0.00      10.05        0.01     1.91   0.826
  sub1                      12.16       0.00       0.00       1.34       9.56       0.00       9.56        0.06    14.15   0.786
  sub2                      12.16       0.00       0.00       4.50       6.75       0.00       6.75        0.06    13.75   0.555
  sub3                      12.16       0.00       0.00       4.50       6.71       0.00       6.71        0.15    32.07   0.552
  sub4                      12.16       0.00       0.00       1.34       9.40       0.00       9.40        0.20    40.20   0.773
  sub5                      12.16       0.00       0.00       0.85       9.99       0.00       9.99        0.11    25.19   0.822
  sub7                      12.16       0.00       0.00       1.09       9.81       0.00       9.81        0.03     7.55   0.807
  sub8                      12.16       0.00       0.00       1.09       9.80       0.00       9.80        0.06    14.17   0.806
  sub9                      12.16       0.00       0.00       1.09       9.80       0.00       9.80        0.05    10.64   0.806
  sub10                     12.16       0.00       0.00       0.97       9.89       0.00       9.89        0.11    24.40   0.813
  sub11                     12.16       0.00       0.00       0.97       9.91       0.00       9.91        0.12    26.15   0.815
  sub12                     12.16       0.00       0.00       1.58       9.39       0.00       9.39        0.08    19.06   0.772
  sub14                     12.16       0.00       0.00       1.09       9.80       0.00       9.80        0.09    21.02   0.805
  sub15                     12.16       0.00       0.00       3.65       7.53       0.00       7.53        0.13    29.11   0.619
  sub16                     12.16       0.00       0.00       4.01       7.23       0.00       7.23        0.08    17.47   0.594
  sub17                     12.16       0.00       0.00       3.89       7.34       0.00       7.34        0.06    14.47   0.603
  sub22                     12.16       0.00       0.00       5.23       6.14       0.00       6.14        0.39    88.27   0.505
  sub23                     12.16       0.00       0.00       4.50       6.79       0.00       6.79        0.32    73.89   0.558
  sub60                     12.16       0.00       0.00       1.46       7.71       0.00       7.71        2.34   297.17   0.634
  sub61                     12.16       0.00       0.00       2.07       7.87       0.00       7.87        2.43   359.80   0.647
  sub62                     12.16       0.00       0.00       0.97       8.55       0.00       8.55        2.63   372.87   0.703
  sub63                     12.16       0.00       0.00       3.53       6.89       0.00       6.89        2.09   327.80   0.567
  sub64                     12.16       0.00       0.00       1.82       7.40       0.00       7.40        2.25   282.66   0.608
  sub65                     12.16       0.00       0.00       1.58       7.52       0.00       7.52        2.31   287.20   0.618
  sub66                     12.16       0.00       0.00       3.53       6.36       0.00       6.36        1.95   257.27   0.523
  sub67                     12.16       0.00       0.00       0.97       9.05       0.00       9.05        2.79   452.90   0.744
  sub68                     12.16       0.00       0.00       1.70       8.28       0.00       8.28        2.55   391.99   0.681
  sub69                     12.16       0.00       0.00       1.82       8.61       0.00       8.61        2.01   355.79   0.708
  sub70                     12.16       8.79       0.00       7.03      11.43       0.10      11.53        2.64   335.00   0.550
  sub71                     12.16       0.00       0.00       0.97       8.31       0.00       8.31        1.96   263.63   0.683
  sub72                     12.16       0.00       0.00       0.85       6.56       0.00       6.56        1.34   129.40   0.540
  sub73                     12.16      11.23       0.00       7.88      12.47       0.08      12.54        2.95   300.52   0.536
  sub74                     12.16       0.00       0.00       9.12       2.57       0.00       2.57        1.03   189.59   0.211
  
  
  ******************
  Node Depth Summary
  ******************
  
  ---------------------------------------------------------------------------------
                                 Average  Maximum  Maximum  Time of Max    Reported
                                   Depth    Depth      HGL   Occurrence   Max Depth
  Node                 Type       Meters   Meters   Meters  days hr:min      Meters
  ---------------------------------------------------------------------------------
  WS02001211           JUNCTION     0.64     0.73     5.57     0  03:03        0.73
  WS02001212           JUNCTION     0.37     0.46     5.53     0  03:02        0.46
  WS02001213           JUNCTION     0.61     0.73     5.49     0  03:00        0.73
  WS02003069           JUNCTION     0.44     0.59     5.17     0  02:59        0.59
  WS02003072           JUNCTION     0.50     0.64     5.01     0  03:00        0.64
  WS02003073           JUNCTION     0.30     0.40     4.46     0  03:01        0.40
  WS02003060           JUNCTION     0.39     0.52     5.45     0  02:58        0.52
  WS02003066           JUNCTION     0.24     0.32     5.88     0  02:58        0.32
  WS02003059           JUNCTION     0.67     0.79     5.48     0  03:01        0.79
  WS02003067           JUNCTION     0.59     0.74     6.06     0  02:58        0.74
  WS02004401           JUNCTION     0.70     0.95     6.95     0  02:55        0.95
  WS02004402           JUNCTION     0.73     0.97     6.93     0  02:56        0.97
  WS02004403           JUNCTION     0.75     0.98     6.91     0  02:56        0.98
  WS02004404           JUNCTION     0.82     1.04     6.89     0  02:56        1.04
  WS02004406           JUNCTION     0.82     1.01     6.84     0  02:56        1.01
  WS02004409           JUNCTION     0.51     0.74     6.51     0  02:56        0.74
  WS02004410           JUNCTION     0.53     0.75     6.47     0  02:57        0.75
  WS02004411           JUNCTION     0.55     0.75     6.43     0  02:57        0.75
  WS02004412           JUNCTION     0.56     0.75     6.39     0  02:57        0.75
  WS02004413           JUNCTION     0.72     0.91     6.38     0  02:57        0.90
  WS02004405           JUNCTION     0.82     1.03     6.88     0  02:56        1.03
  WS02006109           JUNCTION     0.78     1.07     7.69     0  02:55        1.06
  WS02006110           JUNCTION     0.77     0.99     7.57     0  02:56        0.98
  WS02006111           JUNCTION     0.23     0.32     7.03     0  02:52        0.32
  WS02006112           JUNCTION     0.87     1.21     7.09     0  02:29        1.17
  WS02006113           JUNCTION     0.35     0.50     7.39     0  02:54        0.50
  WS02006115           JUNCTION     0.59     0.86     6.99     0  02:55        0.85
  WS02006116           JUNCTION     0.67     0.93     6.97     0  02:55        0.93
  WS02006230           JUNCTION     0.76     1.12     7.87     0  02:51        1.12
  WS02006231           JUNCTION     0.51     0.79     7.91     0  02:20        0.78
  WS02006232           JUNCTION     0.64     0.92     7.96     0  02:21        0.90
  WS02006234           JUNCTION     0.56     0.86     8.01     0  02:21        0.81
  WS02006235           JUNCTION     0.59     0.88     8.04     0  02:21        0.83
  WS02006238           JUNCTION     0.61     0.91     8.05     0  02:21        0.86
  WS02006240           JUNCTION     0.50     0.80     8.09     0  02:21        0.77
  WS02006242           JUNCTION     0.55     0.86     8.12     0  02:20        0.84
  WS02006243           JUNCTION     0.43     0.75     8.17     0  02:21        0.74
  WS02006245           JUNCTION     0.40     0.70     8.19     0  02:20        0.70
  WS02006247           JUNCTION     0.42     0.78     8.28     0  02:21        0.70
  WS02006248           JUNCTION     0.36     0.65     8.23     0  02:20        0.65
  WS02006249           JUNCTION     0.40     0.64     8.23     0  02:21        0.63
  WS02006239           JUNCTION     0.56     0.86     8.06     0  02:21        0.82
  WS02006251           JUNCTION     0.38     0.66     8.33     0  02:22        0.66
  WS02006252           JUNCTION     0.33     0.59     8.83     0  07:43        0.59
  WS02006253           JUNCTION     0.41     0.70     8.34     0  02:21        0.68
  WS02006256           JUNCTION     1.07     1.15     8.09     0  00:00        1.13
  WS02004138           JUNCTION     0.15     0.17     7.42     0  01:20        0.17
  WS02004407           JUNCTION     0.23     0.32     6.64     0  02:56        0.32
  WS02006228           JUNCTION     0.78     1.13     7.78     0  02:55        1.13
  WS02006229           JUNCTION     0.76     1.14     7.83     0  02:53        1.14
  WS02006280           JUNCTION     0.07     0.19     8.46     0  03:02        0.19
  WS02006284           JUNCTION     0.37     0.55     8.95     0  03:02        0.55
  WS02006287           JUNCTION     0.11     0.28     9.24     0  03:01        0.28
  WSF200               JUNCTION     0.23     0.35     5.58     0  02:58        0.35
  HS02004901           JUNCTION     0.13     0.28    10.10     0  03:01        0.28
  HS02004881           JUNCTION     0.01     0.04     9.07     0  03:01        0.04
  HS02004876           JUNCTION     0.05     0.12     9.15     0  03:01        0.12
  HS02004870           JUNCTION     0.02     0.06     9.35     0  03:01        0.06
  HS02004862           JUNCTION     0.02     0.07     9.46     0  03:01        0.07
  HS02004856           JUNCTION     0.08     0.13     9.55     0  03:01        0.13
  HS02004852           JUNCTION     0.01     0.05     9.56     0  03:01        0.05
  HS02004848           JUNCTION     0.01     0.05     9.65     0  03:01        0.05
  HS02004842           JUNCTION     0.33     0.38     9.65     0  03:01        0.38
  HS02004837           JUNCTION     0.03     0.07     9.65     0  03:01        0.07
  HS02004830           JUNCTION     0.04     0.08     9.55     0  03:01        0.08
  HS02004824           JUNCTION     0.03     0.06     9.46     0  03:01        0.06
  HS02004817           JUNCTION     0.44     0.60     9.44     0  03:01        0.60
  HS02004807           JUNCTION     0.13     0.27     9.44     0  03:01        0.27
  HS02004802           JUNCTION     0.17     0.30     9.43     0  03:01        0.30
  HS02004799           JUNCTION     0.13     0.33     9.54     0  03:01        0.33
  HS02004792           JUNCTION     0.04     0.14     9.66     0  03:01        0.14
  HS02004788           JUNCTION     0.03     0.10    10.00     0  03:01        0.10
  HS02004785           JUNCTION     0.05     0.17    10.07     0  03:01        0.17
  HS02004777           JUNCTION     0.15     0.30    10.10     0  03:01        0.30
  HS02004770           JUNCTION     0.12     0.27    10.10     0  03:01        0.27
  HS02004480           JUNCTION     0.09     0.26     9.50     0  03:01        0.26
  HS02004479           JUNCTION     0.12     0.30     9.50     0  03:01        0.30
  HS02004478           JUNCTION     0.07     0.18     9.41     0  03:01        0.18
  YS02001745           JUNCTION     0.69     0.88     8.40     0  03:29        0.88
  YS02001748           JUNCTION     1.08     1.67     8.75     0  02:45        1.32
  YS02001751           JUNCTION     1.26     2.08     8.96     0  02:37        1.53
  YS02001754           JUNCTION     1.51     2.03     8.64     0  02:34        1.81
  YS02001762           JUNCTION     1.71     2.03     8.43     0  03:31        2.02
  YS02001765           JUNCTION     1.67     1.98     8.43     0  03:33        1.97
  YS02001767           JUNCTION     1.63     1.93     8.42     0  03:32        1.92
  YS02001770           JUNCTION     1.63     1.91     8.41     0  03:33        1.90
  YS02001774           JUNCTION     1.70     1.98     8.40     0  03:26        1.97
  YS02001779           JUNCTION     1.44     1.68     8.37     0  02:45        1.68
  YS02001882           JUNCTION     0.53     1.61     8.33     0  02:52        1.60
  YS02001884           JUNCTION     0.63     1.71     8.33     0  02:52        1.70
  YS02001759           JUNCTION     1.75     2.07     8.43     0  03:31        2.06
  YS02001887           JUNCTION     0.70     1.79     8.33     0  02:52        1.78
  YS02001890           JUNCTION     0.73     1.81     8.31     0  02:52        1.80
  YS02001898           JUNCTION     0.50     1.55     8.29     0  02:52        1.55
  YS02001901           JUNCTION     0.62     1.67     8.28     0  02:52        1.66
  YS02001904           JUNCTION     0.60     1.63     8.26     0  03:03        1.63
  YS02001907           JUNCTION     0.93     1.96     8.25     0  02:52        1.96
  YS02001910           JUNCTION     0.72     1.78     8.29     0  02:54        1.77
  YS02001915           JUNCTION     0.52     1.59     8.31     0  02:53        1.57
  YS02001918           JUNCTION     0.26     1.27     8.33     0  02:53        1.25
  YS02001619           JUNCTION     1.23     1.61     8.54     0  02:35        1.50
  YS02001629           JUNCTION     1.58     1.85     8.40     0  02:38        1.84
  YS02001641           JUNCTION     1.68     1.97     8.40     0  02:43        1.93
  YS02001644           JUNCTION     1.68     1.92     8.35     0  02:43        1.92
  YS02001652           JUNCTION     1.53     2.16     8.76     0  03:05        2.10
  YS02001655           JUNCTION     1.29     2.20     9.05     0  02:40        2.01
  YS02001920           JUNCTION     0.36     1.35     8.35     0  02:53        1.33
  YS02001923           JUNCTION     0.20     1.10     8.36     0  02:53        1.08
  YS02001926           JUNCTION     0.26     0.91     8.36     0  02:53        0.89
  YS02001929           JUNCTION     0.14     0.69     8.39     0  02:53        0.67
  YS02001658           JUNCTION     1.02     2.30     9.44     0  02:40        1.98
  YS02001661           JUNCTION     0.80     2.46     9.86     0  03:05        1.96
  YS02001664           JUNCTION     0.35     0.57     8.50     0  02:53        0.56
  YS02001622           JUNCTION     1.25     1.62     8.52     0  02:35        1.51
  YS02001633           JUNCTION     1.67     1.99     8.45     0  02:43        1.94
  YS02001649           JUNCTION     1.72     2.05     8.44     0  02:54        2.05
  YS02001757           JUNCTION     1.84     2.17     8.44     0  03:33        2.17
  YS02001895           JUNCTION     0.50     1.56     8.31     0  02:52        1.54
  YS02001625           JUNCTION     1.53     1.78     8.38     0  02:38        1.78
  YS02163301           JUNCTION     1.61     1.93     8.44     0  02:43        1.87
  YS02163601           JUNCTION     1.72     2.04     8.44     0  02:43        1.98
  YS02164001           JUNCTION     1.66     1.97     8.43     0  02:43        1.91
  YS02001647           JUNCTION     1.51     1.82     8.43     0  02:41        1.79
  YSB1154              JUNCTION     0.26     0.45     9.51     0  03:01        0.45
  YSB6556              JUNCTION     0.16     0.34     9.51     0  03:01        0.34
  YSB1174              JUNCTION     0.22     0.40     9.51     0  03:01        0.40
  YSB1171              JUNCTION     0.41     0.60     9.51     0  03:01        0.60
  YS02006553           JUNCTION     0.93     1.96     8.25     0  02:55        1.96
  YS02006561           JUNCTION     0.31     1.09     7.75     0  02:52        1.07
  YS02006556           JUNCTION     0.90     1.92     8.23     0  03:00        1.91
  YS02006558           JUNCTION     0.94     1.96     8.23     0  03:00        1.95
  YS02001783           JUNCTION     0.55     1.65     7.79     0  02:37        1.46
  YS02001784           JUNCTION     0.57     1.76     7.83     0  02:37        1.41
  YS02001786           JUNCTION     0.52     2.23     8.26     0  02:37        1.25
  YS02001788           JUNCTION     0.47     2.01     7.98     0  02:37        1.12
  YS02001790           JUNCTION     0.61     1.96     7.60     0  02:36        1.29
  YS02001791           JUNCTION     0.62     1.77     7.24     0  02:37        1.27
  YS02001793           JUNCTION     0.89     2.51     7.34     0  02:34        1.80
  WS02004139           JUNCTION     0.59     0.68     5.59     0  03:03        0.68
  WSC                  OUTFALL      0.30     0.40     1.07     0  03:01        0.40
  3                    OUTFALL      0.09     0.13     6.13     0  00:00        0.13
  4                    OUTFALL      0.01     0.13     7.13     0  02:21        0.13
  5                    OUTFALL      0.00     0.00     5.00     0  00:00        0.00
  JK-storage           STORAGE      3.30     5.80     6.60     0  02:37        5.80
  CC-storage           STORAGE      1.07     1.39     8.39     0  03:31        1.39
  XR-storage           STORAGE      7.47     7.72     5.72     0  02:21        7.72
  
  
  *******************
  Node Inflow Summary
  *******************
  
  -------------------------------------------------------------------------------------------------
                                  Maximum  Maximum                  Lateral       Total        Flow
                                  Lateral    Total  Time of Max      Inflow      Inflow     Balance
                                   Inflow   Inflow   Occurrence      Volume      Volume       Error
  Node                 Type           LPS      LPS  days hr:min    10^6 ltr    10^6 ltr     Percent
  -------------------------------------------------------------------------------------------------
  WS02001211           JUNCTION      7.35   293.82     0  03:15       0.207         6.3       0.597
  WS02001212           JUNCTION      0.00   295.08     0  03:14           0        6.26       0.321
  WS02001213           JUNCTION      0.00   296.22     0  03:16           0        6.24       0.393
  WS02003069           JUNCTION      0.32   947.61     0  02:59     0.00902        14.7       0.227
  WS02003072           JUNCTION      0.00   947.37     0  02:59           0        14.6       0.271
  WS02003073           JUNCTION      1.82   949.11     0  03:00      0.0514        14.7       0.308
  WS02003060           JUNCTION     16.53   947.71     0  02:58       0.466        14.7       0.215
  WS02003066           JUNCTION      0.00   640.03     0  02:58           0        8.07       0.062
  WS02003059           JUNCTION      0.00   297.96     0  03:15           0        6.22       0.648
  WS02003067           JUNCTION      0.00   639.80     0  02:58           0        8.08       0.127
  WS02004401           JUNCTION      0.00   645.06     0  02:55           0        8.34       0.289
  WS02004402           JUNCTION      0.00   643.92     0  02:55           0        8.32       0.269
  WS02004403           JUNCTION      0.00   642.38     0  02:55           0        8.29       0.242
  WS02004404           JUNCTION      0.16   641.34     0  02:56     0.00457        8.28       0.180
  WS02004406           JUNCTION      0.00   641.75     0  02:56           0        8.24       0.437
  WS02004409           JUNCTION      0.00   641.49     0  02:56           0         8.2       0.236
  WS02004410           JUNCTION      0.00   641.06     0  02:56           0        8.18       0.262
  WS02004411           JUNCTION      0.00   640.59     0  02:57           0        8.16       0.265
  WS02004412           JUNCTION      0.00   640.32     0  02:57           0        8.14       0.281
  WS02004413           JUNCTION      0.00   640.06     0  02:57           0        8.11       0.407
  WS02004405           JUNCTION      0.04   641.52     0  02:56     0.00107        8.26       0.267
  WS02006109           JUNCTION      1.23   626.23     0  02:52      0.0347        8.41       0.265
  WS02006110           JUNCTION      0.00   626.20     0  02:52           0        8.39       0.259
  WS02006111           JUNCTION      0.00   658.56     0  02:54           0        8.36       0.065
  WS02006112           JUNCTION     14.47   646.91     0  02:55      0.0629        8.42       0.379
  WS02006113           JUNCTION      0.00   627.22     0  02:52           0        8.37       0.139
  WS02006115           JUNCTION      0.00   647.38     0  02:55           0        8.39       0.282
  WS02006116           JUNCTION      0.00   646.34     0  02:55           0        8.36       0.264
  WS02006230           JUNCTION     10.28   395.12     0  05:43        0.29        6.54       0.226
  WS02006231           JUNCTION      0.00   386.85     0  05:42           0        6.26       0.244
  WS02006232           JUNCTION      0.00   387.00     0  05:42           0        6.28       0.281
  WS02006234           JUNCTION      0.00   387.69     0  05:42           0        6.29       0.168
  WS02006235           JUNCTION      0.00   388.67     0  05:41           0        6.33       0.189
  WS02006238           JUNCTION      0.00   314.69     0  07:50           0        4.12       0.221
  WS02006240           JUNCTION      0.00   316.19     0  07:42           0        4.12       0.386
  WS02006242           JUNCTION      0.00   324.94     0  06:51           0        4.13       0.452
  WS02006243           JUNCTION      0.00   332.86     0  06:51           0        4.13       0.081
  WS02006245           JUNCTION      0.00   340.26     0  06:51           0        4.14       0.345
  WS02006247           JUNCTION      0.00   346.31     0  06:50           0        4.15       0.256
  WS02006248           JUNCTION      0.00   352.91     0  02:20           0        4.16       0.154
  WS02006249           JUNCTION      0.00   442.26     0  02:20           0         4.4       0.376
  WS02006239           JUNCTION      0.00   314.76     0  07:44           0        4.12       0.358
  WS02006251           JUNCTION      0.08   445.88     0  02:20     0.00217        4.44       0.318
  WS02006252           JUNCTION      0.00   400.00     0  07:40           0        4.06       0.012
  WS02006253           JUNCTION      1.91    80.98     0  03:01     0.00814       0.387       2.205
  WS02006256           JUNCTION      0.00   300.00     0  00:00           0        5.64       0.054
  WS02004138           JUNCTION      0.00   285.00     0  01:20           0        6.13       0.074
  WS02004407           JUNCTION      0.00   641.92     0  02:56           0        8.21       0.107
  WS02006228           JUNCTION      0.00   624.97     0  02:52           0         8.4       0.191
  WS02006229           JUNCTION      0.00   624.30     0  02:53           0        8.41       0.158
  WS02006280           JUNCTION      0.00   375.54     0  03:02           0        1.89       0.004
  WS02006284           JUNCTION      0.10   375.54     0  03:02      0.0027        1.89       0.064
  WS02006287           JUNCTION      0.00   375.27     0  03:01           0        1.89       0.038
  WSF200               JUNCTION      0.00   640.13     0  02:58           0        8.06       0.063
  HS02004901           JUNCTION     17.47    17.47     0  03:01      0.0757      0.0759       2.380
  HS02004881           JUNCTION      7.55    79.19     0  03:01      0.0331       0.357       0.075
  HS02004876           JUNCTION     14.15    72.10     0  03:01      0.0636       0.324       0.171
  HS02004870           JUNCTION     14.17    58.27     0  03:01      0.0626       0.261       0.043
  HS02004862           JUNCTION     13.95    44.46     0  03:01      0.0685       0.198       0.089
  HS02004856           JUNCTION     10.64    30.79     0  03:01      0.0471       0.131       1.114
  HS02004852           JUNCTION      0.00    20.44     0  03:01           0       0.084       0.069
  HS02004848           JUNCTION     32.07    32.07     0  03:01       0.151       0.151       0.033
  HS02004842           JUNCTION      0.00    11.42     0  03:01           0      0.0801      19.389
  HS02004837           JUNCTION     30.75    41.91     0  03:01       0.288       0.355       0.229
  HS02004830           JUNCTION      0.15    41.84     0  03:01     0.00423       0.346       0.359
  HS02004824           JUNCTION     40.25    81.79     0  03:01       0.197       0.542       0.100
  HS02004817           JUNCTION      0.60    82.18     0  03:01      0.0169       0.558       3.079
  HS02004807           JUNCTION     26.15   107.24     0  03:01       0.115       0.657       0.656
  HS02004802           JUNCTION      0.00   106.49     0  03:01           0       0.653       0.618
  HS02004799           JUNCTION     21.02   227.51     0  03:01      0.0932        1.06       0.236
  HS02004792           JUNCTION     88.55   207.33     0  03:01       0.396       0.966       0.043
  HS02004788           JUNCTION     30.78   119.37     0  03:01       0.177       0.571       0.069
  HS02004785           JUNCTION      0.15    89.79     0  03:01     0.00423       0.396       0.125
  HS02004777           JUNCTION      0.03    90.24     0  03:01    0.000846       0.397       1.326
  HS02004770           JUNCTION     73.89    90.93     0  03:01       0.324       0.398       0.787
  HS02004480           JUNCTION      0.00   269.27     0  03:01           0        1.25       0.099
  HS02004479           JUNCTION      0.00    42.82     0  03:02           0       0.204       0.360
  HS02004478           JUNCTION      0.00   375.17     0  03:01           0        1.89       0.018
  YS02001745           JUNCTION    297.18   297.18     0  03:01        2.34        2.34       0.443
  YS02001748           JUNCTION      0.04   419.12     0  02:40     0.00127        2.33       1.003
  YS02001751           JUNCTION      0.01   383.70     0  02:34     0.00031        2.31       1.022
  YS02001754           JUNCTION      0.26   308.24     0  03:01     0.00733        2.29       1.085
  YS02001762           JUNCTION      0.00   336.33     0  02:55           0        1.81       1.170
  YS02001765           JUNCTION      0.00   336.18     0  02:55           0        1.81       1.347
  YS02001767           JUNCTION      0.54   336.36     0  02:55      0.0151        1.83       1.975
  YS02001770           JUNCTION    373.02   373.02     0  03:01        2.63        2.76       1.149
  YS02001774           JUNCTION      0.00   346.97     0  03:34           0        1.04       2.460
  YS02001779           JUNCTION      0.01   347.51     0  03:34    0.000141        1.01       1.526
  YS02001882           JUNCTION      0.00    28.68     0  02:45           0       0.016      15.920
  YS02001884           JUNCTION      0.00    59.58     0  02:39           0       0.052      13.256
  YS02001759           JUNCTION    359.84   662.08     0  02:55        2.43        4.08       0.563
  YS02001887           JUNCTION    453.35   453.70     0  03:01         2.8        2.83       0.299
  YS02001890           JUNCTION      0.00   453.54     0  03:01           0        2.79       0.329
  YS02001898           JUNCTION      0.00   453.58     0  03:01           0        2.77       0.116
  YS02001901           JUNCTION      0.00   453.95     0  03:01           0        2.77       0.248
  YS02001904           JUNCTION      0.00   453.79     0  03:01           0        2.77       0.227
  YS02001907           JUNCTION      0.00   872.36     0  02:58           0        6.12       0.398
  YS02001910           JUNCTION      0.00   445.55     0  02:54           0        3.37       0.348
  YS02001915           JUNCTION    263.65   445.43     0  02:54        1.96        3.39       0.179
  YS02001918           JUNCTION      0.00   210.92     0  02:54           0        1.44       0.133
  YS02001619           JUNCTION    257.27   257.27     0  03:01        1.95        1.95       0.629
  YS02001629           JUNCTION      0.00   207.40     0  02:49           0        1.63       1.803
  YS02001641           JUNCTION      0.00   437.48     0  02:49           0        3.84       0.550
  YS02001644           JUNCTION    282.70  1035.48     0  03:32        2.25         8.4       0.311
  YS02001652           JUNCTION      0.00   373.17     0  03:02           0        2.04       1.141
  YS02001655           JUNCTION      0.15   402.08     0  02:31     0.00434        2.07       1.231
  YS02001920           JUNCTION      2.87   210.72     0  02:54      0.0809        1.43       0.205
  YS02001923           JUNCTION      0.04   233.62     0  02:54     0.00106        1.34       0.049
  YS02001926           JUNCTION      0.05   187.68     0  02:54     0.00147        1.34       0.248
  YS02001929           JUNCTION    129.40   129.40     0  03:01        1.34        1.34       0.040
  YS02001658           JUNCTION      0.00   618.31     0  02:40           0        2.09       1.119
  YS02001661           JUNCTION      0.00   691.19     0  02:54           0        2.79      -0.133
  YS02001664           JUNCTION    327.80   358.71     0  02:53        2.09         2.8       0.221
  YS02001622           JUNCTION      0.00   257.47     0  03:01           0        1.94       1.667
  YS02001633           JUNCTION    287.40   437.18     0  02:49        2.32         3.9       0.829
  YS02001649           JUNCTION      0.00   926.89     0  02:50           0        5.19       0.720
  YS02001757           JUNCTION      0.00  1773.73     0  02:50           0        8.99       1.038
  YS02001895           JUNCTION      0.00   453.66     0  03:01           0        2.78       0.177
  YS02001625           JUNCTION      0.00   257.31     0  03:01           0         1.9       2.057
  YS02163301           JUNCTION      0.00   207.47     0  02:49           0        1.61       1.501
  YS02163601           JUNCTION      0.11   437.22     0  02:49      0.0031        3.87       0.783
  YS02164001           JUNCTION      0.00   437.21     0  02:49           0        3.85       0.522
  YS02001647           JUNCTION      0.00   663.55     0  02:49           0        4.24       0.672
  YSB1154              JUNCTION     25.19    25.19     0  03:01       0.113       0.114       1.285
  YSB6556              JUNCTION      0.00    24.91     0  03:01           0       0.115       1.100
  YSB1174              JUNCTION     19.06    19.06     0  03:01      0.0821      0.0827       1.580
  YSB1171              JUNCTION      0.00    43.19     0  03:01           0       0.203       3.219
  YS02006553           JUNCTION      0.00   667.22     0  03:17           0         5.9       0.264
  YS02006561           JUNCTION      0.00   964.11     0  03:00           0        8.42       0.008
  YS02006556           JUNCTION      0.00   667.01     0  03:17           0         5.9       0.191
  YS02006558           JUNCTION    392.87   964.64     0  03:00        2.57        8.45       0.064
  YS02001783           JUNCTION      0.00   964.18     0  03:00           0        8.42       0.029
  YS02001784           JUNCTION      1.06   965.18     0  03:01      0.0299        8.44       0.044
  YS02001786           JUNCTION      0.06   965.18     0  03:00     0.00159        8.44       0.040
  YS02001788           JUNCTION      0.07   965.24     0  03:01       0.002        8.44       0.023
  YS02001790           JUNCTION      0.15   965.53     0  03:01     0.00437        8.44       0.030
  YS02001791           JUNCTION      0.00   965.47     0  03:00           0        8.44       0.014
  YS02001793           JUNCTION      0.00   965.62     0  03:00           0        8.44       0.003
  WS02004139           JUNCTION      0.32   285.35     0  01:20     0.00905        6.13       0.625
  WSC                  OUTFALL       0.00   949.10     0  03:01           0        14.6       0.000
  3                    OUTFALL       0.00   250.55     0  00:00           0         3.4       0.000
  4                    OUTFALL       0.00   169.39     0  02:21           0        0.23       0.000
  5                    OUTFALL       0.00     0.00     0  00:00           0           0       0.000 ltr
  JK-storage           STORAGE       0.00   965.58     0  03:00           0        8.59      -0.319
  CC-storage           STORAGE       0.00  1773.69     0  02:50           0         7.6       0.822
  XR-storage           STORAGE     690.11   690.11     0  03:01        9.61        10.2      -0.001
  
  
  **********************
  Node Surcharge Summary
  **********************
  
  Surcharging occurs when water rises above the top of the highest conduit.
  ---------------------------------------------------------------------
                                               Max. Height   Min. Depth
                                   Hours       Above Crown    Below Rim
  Node                 Type      Surcharged         Meters       Meters
  ---------------------------------------------------------------------
  WS02004404           JUNCTION        0.70          0.040        2.740
  WS02004406           JUNCTION        0.29          0.015        2.435
  WS02004405           JUNCTION        0.45          0.028        2.772
  WS02006109           JUNCTION        1.92          0.253        1.567
  WS02006110           JUNCTION        0.92          0.078        1.772
  WS02006112           JUNCTION        1.06          0.209        1.471
  WS02006230           JUNCTION        0.57          0.045        1.525
  WS02006231           JUNCTION        0.71          0.076        1.454
  WS02006232           JUNCTION        1.83          0.219        1.261
  WS02006234           JUNCTION        0.71          0.137        1.103
  WS02006235           JUNCTION        1.18          0.168        1.122
  WS02006238           JUNCTION        1.49          0.188        1.242
  WS02006240           JUNCTION        0.61          0.086        1.304
  WS02006242           JUNCTION        0.94          0.125        0.695
  WS02006243           JUNCTION        0.04          0.039        0.731
  WS02006247           JUNCTION        0.01          0.073        0.687
  WS02006239           JUNCTION        0.66          0.115        1.175
  WS02006252           JUNCTION        1.19          0.192        0.908
  WS02006228           JUNCTION        1.85          0.303        1.897
  YS02001748           JUNCTION        5.05          0.595        0.595
  YS02001751           JUNCTION        5.21          1.080        0.120
  YS02001754           JUNCTION        5.39          0.985        0.165
  YS02001762           JUNCTION        5.64          1.034        0.116
  YS02001765           JUNCTION        5.61          0.978        0.122
  YS02001767           JUNCTION        5.59          0.935        0.095
  YS02001770           JUNCTION        5.57          0.881        0.039
  YS02001774           JUNCTION        5.63          0.976        0.074
  YS02001779           JUNCTION        5.38          0.680        0.000
  YS02001882           JUNCTION        0.80          0.614        0.216
  YS02001884           JUNCTION        0.83          0.653        0.217
  YS02001759           JUNCTION        5.66          1.069        0.141
  YS02001887           JUNCTION        0.92          0.744        0.206
  YS02001890           JUNCTION        0.95          0.759        0.001
  YS02001898           JUNCTION        0.75          0.525        0.215
  YS02001901           JUNCTION        0.88          0.671        0.199
  YS02001904           JUNCTION        0.86          0.634        0.216
  YS02001907           JUNCTION        1.48          0.950        0.000
  YS02001910           JUNCTION        1.00          0.779        0.321
  YS02001915           JUNCTION        0.78          0.590        0.410
  YS02001918           JUNCTION        0.53          0.267        0.543
  YS02001619           JUNCTION        5.21          0.610        0.000
  YS02001629           JUNCTION        5.23          0.470        0.000
  YS02001641           JUNCTION        5.62          0.966        0.134
  YS02001644           JUNCTION        5.62          0.920        0.000
  YS02001652           JUNCTION        5.41          1.130        0.000
  YS02001655           JUNCTION        5.25          1.200        0.000
  YS02001920           JUNCTION        0.56          0.345        0.795
  YS02001658           JUNCTION        5.09          1.300        0.000
  YS02001661           JUNCTION        0.23          1.390        0.000
  YS02001622           JUNCTION        5.24          0.620        0.000
  YS02001633           JUNCTION        5.60          0.973        0.087
  YS02001649           JUNCTION        5.64          1.050        0.000
  YS02001757           JUNCTION        5.74          1.175        0.035
  YS02001895           JUNCTION        0.76          0.558        0.192
  YS02001625           JUNCTION        5.49          0.780        0.000
  YS02163301           JUNCTION        5.58          0.926        0.104
  YS02163601           JUNCTION        5.64          1.044        0.036
  YS02164001           JUNCTION        5.61          0.970        0.130
  YS02001647           JUNCTION        5.43          0.815        0.085
  YS02006553           JUNCTION        1.54          0.964        0.226
  YS02006561           JUNCTION        0.66          0.289        0.861
  YS02006556           JUNCTION        1.20          0.881        0.469
  YS02006558           JUNCTION        1.17          0.859        0.541
  YS02001783           JUNCTION        1.29          0.846        0.754
  YS02001784           JUNCTION        1.34          0.959        0.531
  YS02001786           JUNCTION        1.30          1.430        0.000
  YS02001788           JUNCTION        1.28          1.208        0.272
  YS02001790           JUNCTION        2.66          1.157        0.000
  YS02001791           JUNCTION        2.79          0.971        0.949
  YS02001793           JUNCTION        2.99          1.512        1.088
  
  
  *********************
  Node Flooding Summary
  *********************
  
  Flooding refers to all water that overflows a node, whether it ponds or not.
  --------------------------------------------------------------------------
                                                             Total   Maximum
                                 Maximum   Time of Max       Flood    Ponded
                        Hours       Rate    Occurrence      Volume     Depth
  Node                 Flooded       LPS   days hr:min    10^6 ltr    Meters
  --------------------------------------------------------------------------
  YS02001779              2.64    347.31      0  03:34       0.988     0.000
  YS02001907              0.38    289.16      0  02:59       0.211     0.000
  YS02001619              0.01     39.20      0  02:40       0.000     0.000
  YS02001629              0.01     29.36      0  02:40       0.000     0.000
  YS02001644              4.12   1035.39      0  03:32       6.453     0.000
  YS02001652              0.01      6.19      0  03:05       0.000     0.000
  YS02001655              0.01     88.04      0  02:40       0.000     0.000
  YS02001658              0.01    310.79      0  02:40       0.000     0.000
  YS02001661              0.01    126.29      0  03:05       0.000     0.000
  YS02001622              0.01     31.59      0  02:39       0.000     0.000
  YS02001649              0.08     44.65      0  02:57       0.004     0.000
  YS02001625              0.85    168.14      0  03:01       0.235     0.000
  YS02001786              0.01     36.13      0  02:37       0.000     0.000
  YS02001790              0.01    127.96      0  02:36       0.000     0.000
  JK-storage              2.34    665.55      0  03:00       2.977     0.000
  XR-storage              4.37    415.11      0  03:40       3.218     0.000
  
  
  **********************
  Storage Volume Summary
  **********************
  
  --------------------------------------------------------------------------------------------------
                         Average     Avg  Evap Exfil       Maximum     Max    Time of Max    Maximum
                          Volume    Pcnt  Pcnt  Pcnt        Volume    Pcnt     Occurrence    Outflow
  Storage Unit           1000 m3    Full  Loss  Loss       1000 m3    Full    days hr:min        LPS
  --------------------------------------------------------------------------------------------------
  JK-storage               0.166      57     0     0         0.291     100       0  02:37     366.65
  CC-storage               2.990      19     0     0         3.873      25       0  03:31     400.00
  XR-storage               0.897      97     0     0         0.926     100       0  02:21     285.00
  
  
  ***********************
  Outfall Loading Summary
  ***********************
  
  -----------------------------------------------------------
                         Flow       Avg       Max       Total
                         Freq      Flow      Flow      Volume
  Outfall Node           Pcnt       LPS       LPS    10^6 ltr
  -----------------------------------------------------------
  WSC                   99.99    592.23    949.10      14.615
  3                     95.50    159.22    250.55       3.400
  4                     24.53     42.22    169.39       0.230
  5                      0.00      0.00      0.00       0.000
  -----------------------------------------------------------
  System                55.01    793.67   1219.46      18.244
  
  
  ********************
  Link Flow Summary
  ********************
  
  -----------------------------------------------------------------------------
                                 Maximum  Time of Max   Maximum    Max/    Max/
                                  |Flow|   Occurrence   |Veloc|    Full    Full
  Link                 Type          LPS  days hr:min     m/sec    Flow   Depth
  -----------------------------------------------------------------------------
  WS02003066WSF200     CONDUIT    640.13     0  02:58      2.84    0.11    0.26
  WS02006287WS02006284 CONDUIT    375.44     0  03:02      1.98    0.17    0.29
  WS02006284WS02006280 CONDUIT    375.54     0  03:02      2.22    0.16    0.27
  WS02006280WS02006229 CONDUIT    375.58     0  03:02      3.58    0.08    0.19
  WS02006229WS02006228 CONDUIT    624.97     0  02:52      1.24    2.07    1.00
  WS02006256WS02006235 CONDUIT    166.25     0  00:01      2.58    1.76    1.00
  WS02006253WS02006251 CONDUIT     87.96     0  02:58      0.46    0.26    0.96
  WS02006252WS02006251 CONDUIT    400.55     0  07:40      3.19    1.47    1.00
  WS02006251WS02006249 CONDUIT    442.26     0  02:20      1.23    1.28    0.92
  WS02006249WS02006248 CONDUIT    352.91     0  02:20      1.16    1.93    0.90
  WS02006248WS02006247 CONDUIT    346.31     0  06:50      1.12    0.75    0.96
  WS02006247WS02006245 CONDUIT    340.26     0  06:51      1.08    2.70    0.99
  WS02006245WS02006243 CONDUIT    332.86     0  06:51      1.09    0.98    1.00
  WS02006243WS02006242 CONDUIT    324.94     0  06:51      0.95    0.69    1.00
  WS02006242WS02006240 CONDUIT    316.19     0  07:42      0.87    1.26    1.00
  WS02006240WS02006239 CONDUIT    314.76     0  07:44      0.86    0.99    1.00
  WS02006239WS02006238 CONDUIT    314.69     0  07:50      0.82    1.01    1.00
  WS02006238WS02006235 CONDUIT    314.69     0  07:50      1.25    0.70    1.00
  WS02006235WS02006234 CONDUIT    387.69     0  05:42      1.03    4.09    1.00
  WS02006234WS02006232 CONDUIT    387.00     0  05:42      1.13    0.78    1.00
  WS02006232WS02006231 CONDUIT    386.85     0  05:42      1.06    0.81    1.00
  WS02006231WS02006230 CONDUIT    384.84     0  05:43      1.35    5.84    1.00
  WS02006230WS02006229 CONDUIT    394.77     0  05:43      1.03    8.79    1.00
  WS02006228WS02006109 CONDUIT    625.00     0  02:52      1.24    2.73    1.00
  WS02006116WS02004401 CONDUIT    645.06     0  02:55      0.84    0.89    0.94
  WS02006115WS02006116 CONDUIT    646.34     0  02:55      0.90    0.83    0.86
  WS02006113WS02006111 CONDUIT    658.56     0  02:54      2.59    0.79    0.51
  WS02006112WS02006115 CONDUIT    647.38     0  02:55      0.86    0.38    0.92
  WS02006111WS02006112 CONDUIT    633.36     0  02:55      1.71    0.30    0.70
  WS02006110WS02006113 CONDUIT    627.22     0  02:52      1.44    0.57    0.81
  WS02006109WS02006110 CONDUIT    626.20     0  02:52      1.25    1.20    1.00
  WS02004411WS02004412 CONDUIT    640.32     0  02:57      1.01    0.91    0.75
  WS02004401WS02004402 CONDUIT    643.92     0  02:55      0.83    0.77    0.96
  WS02004413WS02003067 CONDUIT    639.80     0  02:58      1.22    0.27    0.63
  WS02004412WS02004413 CONDUIT    640.06     0  02:57      0.92    0.43    0.83
  WS02004410WS02004411 CONDUIT    640.59     0  02:57      1.02    0.87    0.75
  WS02004409WS02004410 CONDUIT    641.06     0  02:56      1.03    0.83    0.74
  WS02004407WS02004409 CONDUIT    641.49     0  02:56      1.51    0.23    0.53
  WS02004406WS02004407 CONDUIT    641.92     0  02:56      1.16    0.29    0.66
  WS02004405WS02004406 CONDUIT    641.75     0  02:56      0.82    1.27    1.00
  WS02004404WS02004405 CONDUIT    641.48     0  02:56      0.84    6.28    1.00
  WS02004403WS02004404 CONDUIT    641.18     0  02:56      0.82    0.46    0.99
  WS02004402WS02004403 CONDUIT    642.38     0  02:55      0.83    0.92    0.97
  WS02004139WS02001211 CONDUIT    286.48     0  03:15      0.69    0.36    0.55
  WS02004138WS02004139 CONDUIT    285.03     0  01:20      2.94    0.06    0.40
  WS02003067WS02003066 CONDUIT    640.03     0  02:58      1.33    0.21    0.44
  WS02001213WS02003059 CONDUIT    297.96     0  03:15      0.65    0.49    0.75
  WS02001212WS02001213 CONDUIT    296.22     0  03:16      1.19    0.46    0.44
  WS02001211WS02001212 CONDUIT    295.08     0  03:14      0.67    0.23    0.60
  WS02003072WS02003073 CONDUIT    947.28     0  03:00      1.73    2.05    0.49
  WS02003069WS02003072 CONDUIT    947.37     0  02:59      1.63    0.46    0.51
  WS02003060WS02003069 CONDUIT    947.29     0  02:59      1.87    0.37    0.46
  WS02003059WS02003060 CONDUIT    300.25     0  03:15      0.82    0.20    0.65
  HS02004901HS02004770 CONDUIT     17.70     0  03:01      0.07    0.07    0.39
  HS02004876HS02004881 CONDUIT     71.90     0  03:01      0.92    0.76    0.11
  HS02004870HS02004876 CONDUIT     58.03     0  03:01      0.63    0.04    0.13
  HS02004842HS02004848 CONDUIT     11.42     0  03:01      0.05    0.01    0.30
  HS02004837HS02004842 CONDUIT     11.94     0  03:02      0.41    0.01    0.32
  HS02004830HS02004837 CONDUIT     41.69     0  03:01      0.56    0.04    0.11
  HS02004824HS02004830 CONDUIT     41.67     0  03:01      0.58    0.05    0.10
  HS02004817HS02004824 CONDUIT     81.58     0  03:01      0.25    0.04    0.47
  HS02004770HS02004777 CONDUIT     90.21     0  03:01      0.32    0.16    0.41
  HS02004799HS02004480 CONDUIT    226.97     0  03:01      0.78    0.29    0.42
  HS02004792HS02004799 CONDUIT    206.60     0  03:01      0.88    0.13    0.33
  HS02004788HS02004792 CONDUIT    118.94     0  03:01      1.01    0.08    0.17
  HS02004785HS02004788 CONDUIT     89.52     0  03:02      0.66    0.67    0.19
  HS02004777HS02004785 CONDUIT     89.64     0  03:01      0.38    0.11    0.33
  HS02004480HS02004478 CONDUIT    269.12     0  03:01      1.20    1.13    0.32
  HS02004479HS02004480 CONDUIT     44.17     0  03:02      0.23    0.04    0.40
  HS02004862HS02004870 CONDUIT     44.23     0  03:01      0.64    0.05    0.10
  HS02004848HS02004852 CONDUIT     20.44     0  03:01      0.44    0.02    0.07
  HS02004856HS02004862 CONDUIT     30.57     0  03:01      0.47    0.03    0.09
  HS02004852HS02004856 CONDUIT     20.26     0  03:01      0.24    0.02    0.12
  HS02004802HS02004478 CONDUIT    106.59     0  03:02      0.45    0.09    0.35
  HS02004478WS02006287 CONDUIT    375.27     0  03:01      1.68    0.11    0.25
  HS02004817HS02004807 CONDUIT     82.18     0  03:01      0.19    0.05    0.62
  HS02004807HS02004802 CONDUIT    106.49     0  03:01      0.38    0.20    0.40
  YS02001759YS02001757 CONDUIT    662.12     0  02:55      0.84    0.47    1.00
  YS02001762YS02001759 CONDUIT    336.52     0  02:55      0.43    0.39    1.00
  YS02001765YS02001762 CONDUIT    336.33     0  02:55      0.43    0.32    1.00
  YS02001770YS02001767 CONDUIT    335.82     0  02:55      0.43    1.33    1.00
  YS02001774YS02001770 CONDUIT    346.97     0  03:34      0.44    0.22    1.00
  YS02001779YS02001774 CONDUIT    347.51     0  03:34      0.44    0.18    1.00
  YS02001649YS02001757 CONDUIT    926.93     0  02:50      1.18    0.56    1.00
  YS02001767YS02001765 CONDUIT    336.18     0  02:55      0.43    0.42    1.00
  YS02006561YS02001783 CONDUIT    964.18     0  03:00      2.12    0.50    1.00
  YS02001783YS02001784 CONDUIT    964.12     0  03:01      1.92    1.33    1.00
  YS02001784YS02001785 CONDUIT    965.12     0  03:00      1.92    2.25    1.00
  YS02001788YS02001790 CONDUIT    965.37     0  03:01      2.29    0.71    1.00
  YS02001790YS02001791 CONDUIT    965.47     0  03:00      2.79    1.05    1.00
  YS02001791YS02001793 CONDUIT    965.62     0  03:00      5.54    0.41    1.00
  YS02001910YS02001907 CONDUIT    445.47     0  02:54      0.57    0.25    1.00
  YS02001786YS02001788 CONDUIT    965.17     0  03:01      2.20    1.86    1.00
  YS02001915YS02001910 CONDUIT    445.55     0  02:54      0.57    0.22    1.00
  YS02001918YS02001915 CONDUIT    211.35     0  02:54      0.44    0.12    1.00
  YS02001923YS02001920 CONDUIT    207.85     0  02:54      0.68    0.09    1.00
  YS02001926YS02001923 CONDUIT    233.58     0  02:54      0.79    0.33    0.89
  YS02001929YS02001926 CONDUIT    187.63     0  02:54      0.84    0.09    0.80
  YS02001920YS02001918 CONDUIT    210.92     0  02:54      0.67    0.20    1.00
  YS02001629YS02163301 CONDUIT    207.47     0  02:49      0.26    0.26    1.00
  YS02001619YS02001622 CONDUIT    257.47     0  03:01      0.61    0.38    1.00
  YS02001622YS02001625 CONDUIT    257.31     0  03:01      0.33    0.14    1.00
  YS02001625YS02001629 CONDUIT    207.40     0  02:49      0.26    0.10    1.00
  YS02163301YS02001633 CONDUIT    207.44     0  02:49      0.26    0.20    1.00
  YS02163601YS02164001 CONDUIT    437.21     0  02:49      0.56    0.39    1.00
  YS02164001YS02001641 CONDUIT    437.48     0  02:49      0.56    0.60    1.00
  YS02001641YS02001644 CONDUIT    437.39     0  02:49      0.56    1.41    1.00
  YS02001647YS02001649 CONDUIT    663.76     0  02:49      0.85    0.35    1.00
  YS02006553YS02006556 CONDUIT    667.01     0  03:17      0.85    0.57    1.00
  YS02006556YS02006558 CONDUIT    667.27     0  03:17      0.85    0.53    1.00
  YSB6556YSB1171       CONDUIT     24.81     0  03:03      0.09    0.03    0.67
  YS02001907YS02006553 CONDUIT    667.22     0  03:17      0.74    0.78    1.00
  YS02006558YS02006561 CONDUIT    964.11     0  03:00      3.41    2.13    1.00
  YS02001633YS02163601 CONDUIT    437.11     0  02:49      0.56    0.46    1.00
  YS02001644YS02001647 CONDUIT    663.55     0  02:49      0.84    0.39    1.00
  YS02001745YS02001748 CONDUIT    419.08     0  02:40      1.48    0.16    0.94
  YS02001748YS02001751 CONDUIT    383.69     0  02:34      1.05    0.19    1.00
  YS02001751YS02001754 CONDUIT    307.98     0  03:01      0.88    0.15    1.00
  YS02001754YS02001757 CONDUIT    308.05     0  03:01      0.39    0.12    1.00
  YS02001882YS02001884 CONDUIT     28.68     0  02:45      0.09    0.03    1.00
  YS02001884YS02001887 CONDUIT     59.58     0  02:39      0.08    0.08    1.00
  YS02001890YS02001895 CONDUIT    453.66     0  03:01      0.58    0.21    1.00
  YS02001895YS02001898 CONDUIT    453.58     0  03:01      0.58    0.79    1.00
  YS02001898YS02001901 CONDUIT    453.95     0  03:01      0.58    0.29    1.00
  YS02001901YS02001904 CONDUIT    453.79     0  03:01      0.58    0.70    1.00
  YS02001904YS02001907 CONDUIT    453.84     0  03:01      0.58    0.16    1.00
  YS02001887YS02001890 CONDUIT    453.54     0  03:01      0.58    0.78    1.00
  YS02001652YS02001649 CONDUIT    373.40     0  03:02      0.50    0.19    1.00
  YS02001655YS02001652 CONDUIT    373.17     0  03:02      0.93    0.18    1.00
  YS02001658YS02001655 CONDUIT    401.93     0  02:31      1.21    0.17    1.00
  YS02001661YS02001658 CONDUIT    618.31     0  02:40      1.56    0.24    1.00
  YS02001664YS02001661 CONDUIT    691.19     0  02:54      1.54    0.22    0.72
  YSB1154YSB6556       CONDUIT     24.91     0  03:01      0.18    0.04    0.56
  YSB1174YSB1171       CONDUIT     18.78     0  03:01      0.07    0.03    0.68
  YSB1171HS02004479    CONDUIT     42.82     0  03:02      0.54    0.03    0.53
  HS02004881HS02006253 CONDUIT     79.15     0  03:01      2.19    0.02    0.27
  YS02001793JiankangQianchi CONDUIT    965.58     0  03:00     13.02    0.08    1.00
  YS02001757CaochengTiaoxuchi CONDUIT   1773.69     0  02:50      2.37    0.78    1.00
  WSF200WS02003060     CONDUIT    640.36     0  02:58      1.90    0.14    0.36
  1                    CONDUIT    949.10     0  03:01      3.28    0.33    0.40
  2                    CONDUIT    169.39     0  02:21      5.60    0.41    0.45
  3                    CONDUIT    250.55     0  00:00      8.32    0.40    0.46
  4                    CONDUIT      0.00     0  00:00      0.00    0.00    0.00
  CC-Pump-1            PUMP       200.00     0  04:00              1.00
  CC-Pump-2            PUMP       200.00     0  01:59              1.00
  JK-Pump-1            PUMP         0.00     0  00:00              0.00
  JK-Pump-2            PUMP       300.00     0  00:00              1.00
  XR-Pump-1            PUMP        95.00     0  00:00              1.00
  XR-Pump-2            PUMP        95.00     0  00:00              1.00
  XR-Pump-3            PUMP         0.00     0  00:00              0.00
  XR-Pump-4            PUMP        95.00     0  01:10              1.00
  
  
  ***************************
  Flow Classification Summary
  ***************************
  
  -------------------------------------------------------------------------------------
                      Adjusted    ---------- Fraction of Time in Flow Class ---------- 
                       /Actual         Up    Down  Sub   Sup   Up    Down  Norm  Inlet 
  Conduit               Length    Dry  Dry   Dry   Crit  Crit  Crit  Crit  Ltd   Ctrl  
  -------------------------------------------------------------------------------------
  WS02003066WSF200        1.00   0.06  0.00  0.00  0.00  0.94  0.00  0.00  0.61  0.00
  WS02006287WS02006284    1.00   0.04  0.01  0.00  0.58  0.37  0.00  0.00  0.65  0.00
  WS02006284WS02006280    1.00   0.04  0.00  0.00  0.00  0.00  0.00  0.96  0.00  0.00
  WS02006280WS02006229    1.00   0.04  0.00  0.00  0.00  0.00  0.00  0.96  0.00  0.00
  WS02006229WS02006228    1.00   0.00  0.00  0.00  0.99  0.00  0.00  0.01  0.00  0.00
  WS02006256WS02006235    1.00   0.00  0.00  0.00  1.00  0.00  0.00  0.00  0.00  0.00
  WS02006253WS02006251    1.00   0.03  0.01  0.00  0.96  0.00  0.00  0.00  0.00  0.00
  WS02006252WS02006251    1.00   0.07  0.00  0.00  0.00  0.00  0.93  0.00  0.00  0.00
  WS02006251WS02006249    1.00   0.00  0.00  0.00  1.00  0.00  0.00  0.00  0.23  0.00
  WS02006249WS02006248    1.00   0.00  0.02  0.00  0.90  0.00  0.08  0.00  0.00  0.00
  WS02006248WS02006247    1.00   0.02  0.00  0.00  0.98  0.00  0.00  0.00  0.11  0.00
  WS02006247WS02006245    1.00   0.02  0.00  0.00  0.98  0.00  0.00  0.00  0.00  0.00
  WS02006245WS02006243    1.00   0.01  0.00  0.00  0.95  0.00  0.00  0.03  0.01  0.00
  WS02006243WS02006242    1.00   0.01  0.00  0.00  0.99  0.00  0.00  0.00  0.21  0.00
  WS02006242WS02006240    1.00   0.00  0.00  0.00  1.00  0.00  0.00  0.00  0.00  0.00
  WS02006240WS02006239    1.00   0.00  0.00  0.00  0.97  0.00  0.00  0.03  0.01  0.00
  WS02006239WS02006238    1.00   0.00  0.00  0.00  1.00  0.00  0.00  0.00  0.02  0.00
  WS02006238WS02006235    1.00   0.00  0.00  0.00  1.00  0.00  0.00  0.00  0.00  0.00
  WS02006235WS02006234    1.00   0.00  0.00  0.00  0.96  0.00  0.04  0.00  0.00  0.00
  WS02006234WS02006232    1.00   0.00  0.00  0.00  1.00  0.00  0.00  0.00  0.11  0.00
  WS02006232WS02006231    1.00   0.00  0.00  0.00  0.99  0.00  0.00  0.00  0.00  0.00
  WS02006231WS02006230    1.00   0.00  0.00  0.00  0.55  0.00  0.44  0.00  0.00  0.00
  WS02006230WS02006229    1.00   0.00  0.00  0.00  0.99  0.00  0.00  0.01  0.01  0.00
  WS02006228WS02006109    1.00   0.00  0.00  0.00  1.00  0.00  0.00  0.00  0.00  0.00
  WS02006116WS02004401    1.00   0.02  0.00  0.00  0.98  0.00  0.00  0.00  0.00  0.00
  WS02006115WS02006116    1.00   0.02  0.00  0.00  0.97  0.00  0.00  0.01  0.00  0.00
  WS02006113WS02006111    1.00   0.02  0.00  0.00  0.00  0.98  0.00  0.00  0.11  0.00
  WS02006112WS02006115    1.00   0.02  0.00  0.00  0.97  0.00  0.00  0.00  0.00  0.00
  WS02006111WS02006112    1.00   0.02  0.00  0.00  0.98  0.00  0.00  0.00  0.93  0.00
  WS02006110WS02006113    1.00   0.01  0.01  0.00  0.98  0.00  0.00  0.00  0.00  0.00
  WS02006109WS02006110    1.00   0.00  0.01  0.00  0.98  0.00  0.01  0.00  0.00  0.00
  WS02004411WS02004412    1.00   0.04  0.00  0.00  0.96  0.00  0.00  0.00  0.00  0.00
  WS02004401WS02004402    1.00   0.02  0.00  0.00  0.98  0.00  0.00  0.00  0.00  0.00
  WS02004413WS02003067    1.00   0.04  0.01  0.00  0.00  0.00  0.95  0.00  0.00  0.00
  WS02004412WS02004413    1.00   0.04  0.00  0.00  0.96  0.00  0.00  0.00  0.03  0.00
  WS02004410WS02004411    1.00   0.04  0.00  0.00  0.96  0.00  0.00  0.00  0.04  0.00
  WS02004409WS02004410    1.00   0.04  0.00  0.00  0.96  0.00  0.00  0.00  0.03  0.00
  WS02004407WS02004409    1.00   0.04  0.00  0.00  0.96  0.00  0.00  0.00  0.89  0.00
  WS02004406WS02004407    1.00   0.00  0.04  0.00  0.96  0.00  0.00  0.00  0.00  0.00
  WS02004405WS02004406    1.00   0.00  0.00  0.00  1.00  0.00  0.00  0.00  0.01  0.00
  WS02004404WS02004405    1.00   0.00  0.00  0.00  1.00  0.00  0.00  0.00  0.00  0.00
  WS02004403WS02004404    1.00   0.00  0.03  0.00  0.97  0.00  0.00  0.00  0.01  0.00
  WS02004402WS02004403    1.00   0.03  0.00  0.00  0.97  0.00  0.00  0.00  0.00  0.00
  WS02004139WS02001211    1.00   0.00  0.00  0.00  1.00  0.00  0.00  0.00  0.00  0.00
  WS02004138WS02004139    1.00   0.00  0.00  0.00  0.99  0.01  0.00  0.00  1.00  0.00
  WS02003067WS02003066    1.00   0.05  0.01  0.00  0.94  0.00  0.00  0.00  0.00  0.00
  WS02001213WS02003059    1.00   0.00  0.00  0.00  0.99  0.00  0.00  0.00  0.00  0.00
  WS02001212WS02001213    1.00   0.00  0.00  0.00  0.89  0.00  0.11  0.00  0.00  0.00
  WS02001211WS02001212    1.00   0.00  0.00  0.00  1.00  0.00  0.00  0.00  0.00  0.00
  WS02003072WS02003073    1.00   0.00  0.00  0.00  0.00  0.00  0.00  1.00  0.00  0.00
  WS02003069WS02003072    1.00   0.00  0.00  0.00  0.99  0.01  0.00  0.00  0.23  0.00
  WS02003060WS02003069    1.00   0.00  0.00  0.00  0.99  0.01  0.00  0.00  0.13  0.00
  WS02003059WS02003060    1.00   0.00  0.00  0.00  1.00  0.00  0.00  0.00  0.01  0.00
  HS02004901HS02004770    1.00   0.04  0.00  0.00  0.96  0.00  0.00  0.00  0.00  0.00
  HS02004876HS02004881    1.00   0.02  0.00  0.00  0.90  0.08  0.00  0.00  0.00  0.00
  HS02004870HS02004876    1.00   0.01  0.00  0.00  0.99  0.00  0.00  0.00  0.95  0.00
  HS02004842HS02004848    1.00   0.00  0.04  0.00  0.96  0.00  0.00  0.00  0.58  0.00
  HS02004837HS02004842    1.00   0.00  0.00  0.00  0.99  0.01  0.00  0.00  0.11  0.00
  HS02004830HS02004837    1.00   0.00  0.00  0.00  1.00  0.00  0.00  0.00  0.99  0.00
  HS02004824HS02004830    1.00   0.00  0.00  0.00  1.00  0.00  0.00  0.00  0.00  0.00
  HS02004817HS02004824    1.00   0.00  0.00  0.00  1.00  0.00  0.00  0.00  1.00  0.00
  HS02004770HS02004777    1.00   0.00  0.04  0.00  0.96  0.00  0.00  0.00  0.03  0.00
  HS02004799HS02004480    1.00   0.00  0.02  0.00  0.95  0.00  0.02  0.00  0.00  0.00
  HS02004792HS02004799    1.00   0.00  0.00  0.00  0.99  0.01  0.00  0.00  0.98  0.00
  HS02004788HS02004792    1.00   0.00  0.00  0.00  0.99  0.01  0.00  0.00  0.98  0.00
  HS02004785HS02004788    1.00   0.00  0.00  0.00  1.00  0.00  0.00  0.00  0.00  0.00
  HS02004777HS02004785    1.00   0.00  0.00  0.00  1.00  0.00  0.00  0.00  0.14  0.00
  HS02004480HS02004478    1.00   0.04  0.00  0.00  0.66  0.00  0.00  0.30  0.00  0.00
  HS02004479HS02004480    1.00   0.03  0.00  0.00  0.97  0.00  0.00  0.00  0.12  0.00
  HS02004862HS02004870    1.00   0.00  0.00  0.00  1.00  0.00  0.00  0.00  0.05  0.00
  HS02004848HS02004852    1.00   0.04  0.00  0.00  0.96  0.00  0.00  0.00  0.61  0.00
  HS02004856HS02004862    1.00   0.00  0.05  0.00  0.95  0.00  0.00  0.00  0.80  0.00
  HS02004852HS02004856    1.00   0.04  0.00  0.00  0.96  0.00  0.00  0.00  0.85  0.00
  HS02004802HS02004478    1.00   0.04  0.00  0.00  0.96  0.00  0.00  0.00  0.03  0.00
  HS02004478WS02006287    1.00   0.05  0.00  0.00  0.72  0.23  0.00  0.00  0.66  0.00
  HS02004817HS02004807    1.00   0.00  0.04  0.00  0.96  0.00  0.00  0.00  0.01  0.00
  HS02004807HS02004802    1.00   0.04  0.00  0.00  0.95  0.00  0.00  0.00  0.00  0.00
  YS02001759YS02001757    1.00   0.00  0.00  0.00  1.00  0.00  0.00  0.00  0.16  0.00
  YS02001762YS02001759    1.00   0.00  0.00  0.00  1.00  0.00  0.00  0.00  0.04  0.00
  YS02001765YS02001762    1.00   0.00  0.00  0.00  1.00  0.00  0.00  0.00  0.16  0.00
  YS02001770YS02001767    1.00   0.00  0.00  0.00  1.00  0.00  0.00  0.00  0.00  0.00
  YS02001774YS02001770    1.00   0.00  0.04  0.00  0.96  0.00  0.00  0.00  0.04  0.00
  YS02001779YS02001774    1.00   0.00  0.00  0.00  1.00  0.00  0.00  0.00  0.21  0.00
  YS02001649YS02001757    1.00   0.00  0.00  0.00  1.00  0.00  0.00  0.00  0.17  0.00
  YS02001767YS02001765    1.00   0.00  0.00  0.00  1.00  0.00  0.00  0.00  0.00  0.00
  YS02006561YS02001783    1.00   0.06  0.00  0.00  0.43  0.51  0.00  0.00  0.57  0.00
  YS02001783YS02001784    1.00   0.00  0.06  0.00  0.94  0.00  0.00  0.00  0.01  0.00
  YS02001784YS02001785    1.00   0.00  0.00  0.00  1.00  0.00  0.00  0.00  0.20  0.00
  YS02001788YS02001790    1.00   0.00  0.00  0.00  0.52  0.48  0.00  0.00  0.50  0.00
  YS02001790YS02001791    1.00   0.00  0.00  0.00  0.50  0.50  0.00  0.00  0.37  0.00
  YS02001791YS02001793    1.00   0.00  0.00  0.00  0.51  0.49  0.00  0.00  0.02  0.00
  YS02001910YS02001907    1.00   0.00  0.00  0.00  0.97  0.00  0.00  0.02  0.13  0.00
  YS02001786YS02001788    1.00   0.00  0.00  0.00  0.50  0.50  0.00  0.00  0.00  0.00
  YS02001915YS02001910    1.00   0.00  0.00  0.00  0.99  0.01  0.00  0.00  0.18  0.00
  YS02001918YS02001915    1.00   0.00  0.01  0.00  0.98  0.01  0.00  0.00  0.58  0.00
  YS02001923YS02001920    1.00   0.00  0.00  0.00  1.00  0.00  0.00  0.00  0.85  0.00
  YS02001926YS02001923    1.00   0.00  0.03  0.00  0.14  0.00  0.83  0.00  0.00  0.00
  YS02001929YS02001926    1.00   0.00  0.04  0.00  0.96  0.00  0.00  0.00  0.78  0.00
  YS02001920YS02001918    1.00   0.00  0.01  0.00  0.99  0.00  0.00  0.00  0.00  0.00
  YS02001629YS02163301    1.00   0.05  0.00  0.00  0.95  0.00  0.00  0.00  0.00  0.00
  YS02001619YS02001622    1.00   0.04  0.00  0.00  0.96  0.00  0.00  0.00  0.00  0.00
  YS02001622YS02001625    1.00   0.04  0.00  0.00  0.96  0.00  0.00  0.00  0.07  0.00
  YS02001625YS02001629    1.00   0.04  0.01  0.00  0.93  0.00  0.01  0.00  0.00  0.00
  YS02163301YS02001633    1.00   0.00  0.05  0.00  0.95  0.00  0.00  0.00  0.00  0.00
  YS02163601YS02164001    1.00   0.00  0.03  0.00  0.97  0.00  0.00  0.00  0.00  0.00
  YS02164001YS02001641    1.00   0.01  0.03  0.00  0.97  0.00  0.00  0.00  0.06  0.00
  YS02001641YS02001644    1.00   0.00  0.01  0.00  0.99  0.00  0.00  0.00  0.00  0.00
  YS02001647YS02001649    1.00   0.00  0.05  0.00  0.95  0.00  0.00  0.00  0.01  0.00
  YS02006553YS02006556    1.00   0.01  0.00  0.00  0.99  0.00  0.00  0.00  0.03  0.00
  YS02006556YS02006558    1.00   0.00  0.00  0.00  1.00  0.00  0.00  0.00  0.00  0.00
  YSB6556YSB1171          1.00   0.03  0.01  0.00  0.96  0.00  0.00  0.00  0.00  0.00
  YS02001907YS02006553    1.00   0.00  0.02  0.00  0.98  0.00  0.00  0.00  0.00  0.00
  YS02006558YS02006561    1.00   0.06  0.00  0.00  0.18  0.77  0.00  0.00  0.48  0.00
  YS02001633YS02163601    1.00   0.00  0.01  0.00  0.99  0.00  0.00  0.00  0.16  0.00
  YS02001644YS02001647    1.00   0.00  0.05  0.00  0.95  0.00  0.00  0.00  0.00  0.00
  YS02001745YS02001748    1.00   0.00  0.00  0.00  0.89  0.01  0.00  0.10  0.05  0.00
  YS02001748YS02001751    1.00   0.00  0.00  0.00  0.98  0.02  0.00  0.00  0.15  0.00
  YS02001751YS02001754    1.00   0.00  0.00  0.00  0.94  0.00  0.00  0.06  0.02  0.00
  YS02001754YS02001757    1.00   0.00  0.00  0.00  0.99  0.01  0.00  0.00  0.20  0.00
  YS02001882YS02001884    1.00   0.05  0.00  0.00  0.95  0.00  0.00  0.00  0.00  0.00
  YS02001884YS02001887    1.00   0.03  0.01  0.00  0.96  0.00  0.00  0.00  0.00  0.00
  YS02001890YS02001895    1.00   0.00  0.05  0.00  0.95  0.00  0.00  0.00  0.00  0.00
  YS02001895YS02001898    1.00   0.05  0.00  0.00  0.94  0.00  0.01  0.00  0.00  0.00
  YS02001898YS02001901    1.00   0.05  0.00  0.00  0.95  0.00  0.00  0.00  0.02  0.00
  YS02001901YS02001904    1.00   0.05  0.00  0.00  0.95  0.00  0.00  0.00  0.00  0.00
  YS02001904YS02001907    1.00   0.00  0.05  0.00  0.95  0.00  0.00  0.00  0.00  0.00
  YS02001887YS02001890    1.00   0.00  0.00  0.00  0.97  0.00  0.02  0.00  0.00  0.00
  YS02001652YS02001649    1.00   0.00  0.00  0.00  1.00  0.00  0.00  0.00  0.18  0.00
  YS02001655YS02001652    1.00   0.00  0.00  0.00  0.94  0.00  0.00  0.06  0.02  0.00
  YS02001658YS02001655    1.00   0.00  0.05  0.00  0.93  0.02  0.00  0.00  0.11  0.00
  YS02001661YS02001658    1.00   0.05  0.00  0.00  0.89  0.06  0.00  0.00  0.06  0.00
  YS02001664YS02001661    1.00   0.04  0.00  0.00  0.86  0.10  0.00  0.00  0.22  0.00
  YSB1154YSB6556          1.00   0.04  0.00  0.00  0.96  0.00  0.00  0.00  0.02  0.00
  YSB1174YSB1171          1.00   0.03  0.01  0.00  0.96  0.00  0.00  0.00  0.00  0.00
  YSB1171HS02004479       1.00   0.03  0.00  0.00  0.97  0.00  0.00  0.00  0.11  0.00
  HS02004881HS02006253    1.00   0.03  0.00  0.00  0.70  0.05  0.00  0.22  0.60  0.00
  YS02001793JiankangQianchi    1.00   0.00  0.00  0.00  0.67  0.32  0.00  0.00  0.14  0.00
  YS02001757CaochengTiaoxuchi    1.00   0.00  0.07  0.00  0.93  0.01  0.00  0.00  0.00  0.00
  WSF200WS02003060        1.00   0.00  0.06  0.00  0.65  0.29  0.00  0.00  0.17  0.00
  1                       1.00   0.00  0.00  0.00  0.00  1.00  0.00  0.00  0.32  0.00
  2                       1.00   0.75  0.00  0.00  0.00  0.25  0.00  0.00  0.05  0.00
  3                       1.00   0.05  0.00  0.00  0.00  0.95  0.00  0.00  0.22  0.00
  4                       1.00   1.00  0.00  0.00  0.00  0.00  0.00  0.00  0.00  0.00
  
  
  *************************
  Conduit Surcharge Summary
  *************************
  
  ----------------------------------------------------------------------------
                                                           Hours        Hours 
                         --------- Hours Full --------   Above Full   Capacity
  Conduit                Both Ends  Upstream  Dnstream   Normal Flow   Limited
  ----------------------------------------------------------------------------
  WS02006229WS02006228        1.85      1.99      1.85      4.74         1.85
  WS02006256WS02006235        6.09      6.09      6.78      3.94         0.01
  WS02006252WS02006251        0.53      0.53      1.19      1.02         0.01
  WS02006251WS02006249        0.01      0.01      0.01      0.56         0.01
  WS02006249WS02006248        0.01      0.01      0.01      4.08         0.01
  WS02006248WS02006247        0.01      0.01      0.01      0.01         0.01
  WS02006247WS02006245        0.01      0.01      0.01      4.78         0.01
  WS02006245WS02006243        0.01      0.01      0.04      0.01         0.01
  WS02006243WS02006242        0.09      0.09      0.93      0.01         0.01
  WS02006242WS02006240        0.61      0.61      1.27      1.07         0.01
  WS02006240WS02006239        0.63      0.63      0.66      0.01         0.01
  WS02006239WS02006238        1.25      1.25      1.49      0.12         0.13
  WS02006238WS02006235        1.40      1.40      1.76      0.01         0.01
  WS02006235WS02006234        0.71      0.71      1.18      6.11         0.01
  WS02006234WS02006232        0.94      0.94      1.83      0.01         0.01
  WS02006232WS02006231        0.71      0.71      1.83      0.01         0.01
  WS02006231WS02006230        0.57      0.57      0.73      6.12         0.01
  WS02006230WS02006229        2.73      4.06      2.73      6.22         2.73
  WS02006228WS02006109        1.92      2.34      1.92      5.59         1.92
  WS02006112WS02006115        0.01      0.01      1.06      0.01         0.01
  WS02006111WS02006112        0.01      0.01      4.91      0.01         0.01
  WS02006110WS02006113        0.01      0.01      2.17      0.01         0.01
  WS02006109WS02006110        0.91      0.91      2.34      0.92         0.01
  WS02004406WS02004407        0.01      0.01      0.29      0.01         0.01
  WS02004405WS02004406        0.29      0.45      0.29      0.98         0.29
  WS02004404WS02004405        0.45      0.70      0.45      6.00         0.45
  WS02004403WS02004404        0.01      0.01      0.70      0.01         0.01
  WS02003072WS02003073        0.01      0.01      0.01      5.45         0.01
  HS02004480HS02004478        0.01      0.01      0.01      0.25         0.01
  YS02001759YS02001757        5.66      5.66      5.74      0.01         0.01
  YS02001762YS02001759        5.64      5.64      5.66      0.01         0.01
  YS02001765YS02001762        5.61      5.61      5.64      0.01         0.01
  YS02001770YS02001767        5.58      5.58      5.59      0.30         0.82
  YS02001774YS02001770        5.57      5.57      5.63      0.01         0.01
  YS02001779YS02001774        5.38      5.38      5.63      0.01         0.01
  YS02001649YS02001757        5.64      5.64      5.74      0.01         0.01
  YS02001767YS02001765        5.59      5.59      5.61      0.01         0.01
  YS02006561YS02001783        0.66      0.66      1.29      0.01         0.01
  YS02001783YS02001784        1.29      1.29      1.34      1.08         1.01
  YS02001784YS02001785        1.30      1.34      1.30      2.07         1.30
  YS02001788YS02001790        1.28      1.28      2.66      0.01         0.01
  YS02001790YS02001791        2.66      2.66      2.79      0.49         0.49
  YS02001791YS02001793        2.79      2.79      3.05      0.01         0.01
  YS02001910YS02001907        1.00      1.00      1.48      0.01         0.01
  YS02001786YS02001788        1.28      1.30      1.28      1.67         1.27
  YS02001915YS02001910        0.78      0.78      1.00      0.01         0.01
  YS02001918YS02001915        0.53      0.53      0.78      0.01         0.01
  YS02001923YS02001920        0.29      0.29      0.56      0.01         0.01
  YS02001920YS02001918        0.53      0.53      0.56      0.01         0.01
  YS02001629YS02163301        5.57      5.57      5.58      0.01         0.01
  YS02001619YS02001622        5.21      5.21      5.24      0.01         0.01
  YS02001622YS02001625        5.24      5.24      5.49      0.01         0.01
  YS02001625YS02001629        5.23      5.23      5.49      0.01         0.01
  YS02163301YS02001633        5.58      5.58      5.61      0.01         0.01
  YS02163601YS02164001        5.61      5.61      5.64      0.01         0.01
  YS02164001YS02001641        5.61      5.61      5.62      0.01         0.03
  YS02001641YS02001644        5.62      5.62      5.62      1.21         1.35
  YS02001647YS02001649        5.43      5.43      5.64      0.01         0.01
  YS02006553YS02006556        1.20      1.20      1.54      0.01         0.01
  YS02006556YS02006558        1.36      1.36      1.61      0.01         0.01
  YS02001907YS02006553        2.09      2.09      2.30      0.01         0.01
  YS02006558YS02006561        0.89      1.17      0.89      1.94         0.89
  YS02001633YS02163601        5.60      5.60      5.64      0.01         0.01
  YS02001644YS02001647        5.43      5.43      5.62      0.01         0.01
  YS02001745YS02001748        0.01      0.01      5.05      0.01         0.01
  YS02001748YS02001751        5.10      5.10      5.21      0.01         0.01
  YS02001751YS02001754        5.21      5.21      5.39      0.01         0.01
  YS02001754YS02001757        5.41      5.41      5.74      0.01         0.01
  YS02001882YS02001884        0.80      0.80      0.83      0.01         0.01
  YS02001884YS02001887        0.89      0.89      0.92      0.01         0.01
  YS02001890YS02001895        0.76      0.76      1.02      0.01         0.01
  YS02001895YS02001898        0.75      0.75      0.76      0.01         0.01
  YS02001898YS02001901        0.77      0.77      0.88      0.01         0.01
  YS02001901YS02001904        0.86      0.86      0.88      0.01         0.01
  YS02001904YS02001907        0.86      0.86      1.56      0.01         0.01
  YS02001887YS02001890        0.95      0.95      0.99      0.01         0.01
  YS02001652YS02001649        5.45      5.45      5.64      0.01         0.01
  YS02001655YS02001652        5.25      5.25      5.41      0.01         0.01
  YS02001658YS02001655        5.09      5.09      5.25      0.01         0.01
  YS02001661YS02001658        0.21      0.21      5.09      0.01         0.01
  YS02001664YS02001661        0.01      0.01      1.19      0.01         0.01
  YS02001793JiankangQianchi        2.99      2.99      3.99      0.01         0.01
  YS02001757CaochengTiaoxuchi        4.90      4.90      5.74      0.01         0.01
  
  
  ***************
  Pumping Summary
  ***************
  
  ---------------------------------------------------------------------------------------------------------
                                                  Min       Avg       Max     Total     Power    % Time Off
                        Percent   Number of      Flow      Flow      Flow    Volume     Usage    Pump Curve
  Pump                 Utilized   Start-Ups       LPS       LPS       LPS  10^6 ltr     Kw-hr    Low   High
  ---------------------------------------------------------------------------------------------------------
  CC-Pump-1               27.66           5      0.00    130.17    200.00     1.020      1.47    0.0   15.4
  CC-Pump-2               73.68           4      0.00    147.99    200.00     3.041      3.88    0.0   10.7
  JK-Pump-1                0.00           0      0.00      0.00      0.00     0.000      0.00    0.0    0.0
  JK-Pump-2              100.00           1      0.00    246.67    300.00     5.639     51.09    0.0    0.0
  XR-Pump-1               93.61           5      0.00     78.23     95.00     2.109     12.99    0.0    0.0
  XR-Pump-2              100.00           2      0.00     84.03     95.00     2.280     13.67    0.0    0.0
  XR-Pump-3                0.00           0      0.00      0.00      0.00     0.000      0.00    0.0    0.0
  XR-Pump-4               85.08           7      0.00     71.78     95.00     1.738      9.93    0.0    0.0
  

  Analysis begun on:  Thu Jan  6 14:58:12 2022
  Analysis ended on:  Thu Jan  6 14:58:16 2022
  Total elapsed time: 00:00:04