
  EPA STORM WATER MANAGEMENT MODEL - VERSION 5.1 (Build 5.3.0.dev0)
  --------------------------------------------------------------

  WARNING 04: minimum elevation drop used for Conduit WS02004404WS02004405
  WARNING 03: negative offset ignored for Link YS02001904YS02001907
  
  *********************************************************
  NOTE: The summary statistics displayed in this report are
  based on results found at every computational time step,  
  not just on results from each reporting time step.
  *********************************************************
  
  ****************
  Analysis Options
  ****************
  Flow Units ............... LPS
  Process Models:
    Rainfall/Runoff ........ YES
    RDII ................... NO
    Snowmelt ............... NO
    Groundwater ............ NO
    Flow Routing ........... YES
    Ponding Allowed ........ NO
    Water Quality .......... NO
  Infiltration Method ...... HORTON
  Flow Routing Method ...... DYNWAVE
  Surcharge Method ......... EXTRAN
  Starting Date ............ 08/28/2015 08:00:00
  Ending Date .............. 08/28/2015 15:50:00
  Antecedent Dry Days ...... 8.0
  Report Time Step ......... 00:01:00
  Wet Time Step ............ 00:01:00
  Dry Time Step ............ 00:01:00
  Routing Time Step ........ 5.00 sec
  Variable Time Step ....... YES
  Maximum Trials ........... 8
  Number of Threads ........ 4
  Head Tolerance ........... 0.001500 m
  
  
  **************************        Volume         Depth
  Runoff Quantity Continuity     hectare-m            mm
  **************************     ---------       -------
  Total Precipitation ......         5.556        12.164
  Evaporation Loss .........         0.000         0.000
  Infiltration Loss ........         1.427         3.124
  Surface Runoff ...........         3.072         6.726
  Final Storage ............         1.058         2.316
  Continuity Error (%) .....        -0.016
  
  
  **************************        Volume        Volume
  Flow Routing Continuity        hectare-m      10^6 ltr
  **************************     ---------     ---------
  Dry Weather Inflow .......         0.616         6.165
  Wet Weather Inflow .......         3.071        30.708
  Groundwater Inflow .......         0.000         0.000
  RDII Inflow ..............         0.000         0.000
  External Inflow ..........         0.102         1.024
  External Outflow .........         1.927        19.269
  Flooding Loss ............         1.310        13.101
  Evaporation Loss .........         0.000         0.000
  Exfiltration Loss ........         0.000         0.000
  Initial Stored Volume ....         0.076         0.761
  Final Stored Volume ......         0.635         6.352
  Continuity Error (%) .....        -0.164
  
  
  *************************
  Highest Continuity Errors
  *************************
  Node HS02004842 (16.24%)
  Node YS02001884 (10.42%)
  Node YS02001774 (3.36%)
  Node YSB1171 (3.12%)
  Node HS02004817 (2.99%)
  
  
  ***************************
  Time-Step Critical Elements
  ***************************
  Link WS02006252WS02006251 (58.05%)
  Link 3 (33.32%)
  Link WS02006238WS02006235 (2.35%)
  Link WS02006280WS02006229 (1.71%)
  
  
  ********************************
  Highest Flow Instability Indexes
  ********************************
  Link YS02163301YS02001633 (40)
  Link YS02163601YS02164001 (40)
  Link YS02001629YS02163301 (39)
  Link YS02001619YS02001622 (39)
  Link YS02164001YS02001641 (36)
  
  
  *************************
  Routing Time Step Summary
  *************************
  Minimum Time Step           :     0.50 sec
  Average Time Step           :     0.81 sec
  Maximum Time Step           :     5.00 sec
  Percent in Steady State     :    -0.00
  Average Iterations per Step :     4.57
  Percent Not Converging      :    20.70
  
  
  ***************************
  Subcatchment Runoff Summary
  ***************************
  
  ------------------------------------------------------------------------------------------------------------------------------
                            Total      Total      Total      Total     Imperv       Perv      Total       Total     Peak  Runoff
                           Precip      Runon       Evap      Infil     Runoff     Runoff     Runoff      Runoff   Runoff   Coeff
  Subcatchment                 mm         mm         mm         mm         mm         mm         mm    10^6 ltr      LPS
  ------------------------------------------------------------------------------------------------------------------------------
  sub0                      12.16       0.00       0.00       0.85      10.05       0.00      10.05        0.01     1.91   0.826
  sub1                      12.16       0.00       0.00       1.34       9.56       0.00       9.56        0.06    14.15   0.786
  sub2                      12.16       0.00       0.00       4.50       6.75       0.00       6.75        0.06    13.75   0.555
  sub3                      12.16       0.00       0.00       4.50       6.71       0.00       6.71        0.15    32.07   0.552
  sub4                      12.16       0.00       0.00       1.34       9.40       0.00       9.40        0.20    40.20   0.773
  sub5                      12.16       0.00       0.00       0.85       9.99       0.00       9.99        0.11    25.19   0.822
  sub7                      12.16       0.00       0.00       1.09       9.81       0.00       9.81        0.03     7.55   0.807
  sub8                      12.16       0.00       0.00       1.09       9.80       0.00       9.80        0.06    14.17   0.806
  sub9                      12.16       0.00       0.00       1.09       9.80       0.00       9.80        0.05    10.64   0.806
  sub10                     12.16       0.00       0.00       0.97       9.89       0.00       9.89        0.11    24.40   0.813
  sub11                     12.16       0.00       0.00       0.97       9.91       0.00       9.91        0.12    26.15   0.815
  sub12                     12.16       0.00       0.00       1.58       9.39       0.00       9.39        0.08    19.06   0.772
  sub14                     12.16       0.00       0.00       1.09       9.80       0.00       9.80        0.09    21.02   0.805
  sub15                     12.16       0.00       0.00       3.65       7.53       0.00       7.53        0.13    29.11   0.619
  sub16                     12.16       0.00       0.00       4.01       7.23       0.00       7.23        0.08    17.47   0.594
  sub17                     12.16       0.00       0.00       3.89       7.34       0.00       7.34        0.06    14.47   0.603
  sub22                     12.16       0.00       0.00       5.23       6.14       0.00       6.14        0.39    88.27   0.505
  sub23                     12.16       0.00       0.00       4.50       6.79       0.00       6.79        0.32    73.89   0.558
  sub60                     12.16       0.00       0.00       1.46       7.71       0.00       7.71        2.34   297.17   0.634
  sub61                     12.16       0.00       0.00       2.07       7.87       0.00       7.87        2.43   359.80   0.647
  sub62                     12.16       0.00       0.00       0.97       8.55       0.00       8.55        2.63   372.87   0.703
  sub63                     12.16       0.00       0.00       3.53       6.89       0.00       6.89        2.09   327.80   0.567
  sub64                     12.16       0.00       0.00       1.82       7.40       0.00       7.40        2.25   282.66   0.608
  sub65                     12.16       0.00       0.00       1.58       7.52       0.00       7.52        2.31   287.20   0.618
  sub66                     12.16       0.00       0.00       3.53       6.36       0.00       6.36        1.95   257.27   0.523
  sub67                     12.16       0.00       0.00       0.97       9.05       0.00       9.05        2.79   452.90   0.744
  sub68                     12.16       0.00       0.00       1.70       8.28       0.00       8.28        2.55   391.99   0.681
  sub69                     12.16       0.00       0.00       1.82       8.61       0.00       8.61        2.01   355.79   0.708
  sub70                     12.16       8.79       0.00       7.03      11.43       0.10      11.53        2.64   335.00   0.550
  sub71                     12.16       0.00       0.00       0.97       8.31       0.00       8.31        1.96   263.63   0.683
  sub72                     12.16       0.00       0.00       0.85       6.56       0.00       6.56        1.34   129.40   0.540
  sub73                     12.16      11.23       0.00       7.88      12.47       0.08      12.54        2.95   300.52   0.536
  sub74                     12.16       0.00       0.00       9.12       2.57       0.00       2.57        1.03   189.59   0.211
  
  
  ******************
  Node Depth Summary
  ******************
  
  ---------------------------------------------------------------------------------
                                 Average  Maximum  Maximum  Time of Max    Reported
                                   Depth    Depth      HGL   Occurrence   Max Depth
  Node                 Type       Meters   Meters   Meters  days hr:min      Meters
  ---------------------------------------------------------------------------------
  WS02001211           JUNCTION     0.65     0.73     5.57     0  02:40        0.73
  WS02001212           JUNCTION     0.38     0.46     5.52     0  02:40        0.46
  WS02001213           JUNCTION     0.62     0.72     5.49     0  02:41        0.72
  WS02003069           JUNCTION     0.45     0.58     5.16     0  02:42        0.58
  WS02003072           JUNCTION     0.51     0.64     5.01     0  02:43        0.64
  WS02003073           JUNCTION     0.31     0.39     4.46     0  02:43        0.39
  WS02003060           JUNCTION     0.40     0.51     5.44     0  02:42        0.51
  WS02003066           JUNCTION     0.25     0.33     5.88     0  03:05        0.33
  WS02003059           JUNCTION     0.68     0.79     5.47     0  02:41        0.79
  WS02003067           JUNCTION     0.60     0.74     6.06     0  03:05        0.74
  WS02004401           JUNCTION     0.71     0.97     6.97     0  03:03        0.97
  WS02004402           JUNCTION     0.74     0.99     6.95     0  03:03        0.99
  WS02004403           JUNCTION     0.76     0.99     6.92     0  03:03        0.99
  WS02004404           JUNCTION     0.83     1.05     6.90     0  03:03        1.05
  WS02004406           JUNCTION     0.84     1.03     6.86     0  03:03        1.03
  WS02004409           JUNCTION     0.53     0.75     6.52     0  03:04        0.75
  WS02004410           JUNCTION     0.55     0.76     6.48     0  03:04        0.76
  WS02004411           JUNCTION     0.56     0.76     6.44     0  03:05        0.76
  WS02004412           JUNCTION     0.57     0.76     6.40     0  03:05        0.76
  WS02004413           JUNCTION     0.73     0.91     6.38     0  03:05        0.91
  WS02004405           JUNCTION     0.83     1.04     6.89     0  03:03        1.04
  WS02006109           JUNCTION     0.80     1.11     7.73     0  03:01        1.10
  WS02006110           JUNCTION     0.78     1.03     7.62     0  03:01        1.02
  WS02006111           JUNCTION     0.23     0.35     7.06     0  03:03        0.35
  WS02006112           JUNCTION     0.89     1.19     7.07     0  02:57        1.18
  WS02006113           JUNCTION     0.36     0.51     7.40     0  03:02        0.51
  WS02006115           JUNCTION     0.61     0.88     7.02     0  03:03        0.88
  WS02006116           JUNCTION     0.69     0.96     7.00     0  03:03        0.96
  WS02006230           JUNCTION     0.78     1.16     7.90     0  03:02        1.16
  WS02006231           JUNCTION     0.53     0.81     7.94     0  03:02        0.81
  WS02006232           JUNCTION     0.66     0.94     7.97     0  02:54        0.93
  WS02006234           JUNCTION     0.58     0.85     8.01     0  02:50        0.85
  WS02006235           JUNCTION     0.62     0.88     8.04     0  02:50        0.87
  WS02006238           JUNCTION     0.64     0.90     8.05     0  02:49        0.90
  WS02006240           JUNCTION     0.54     0.80     8.10     0  02:50        0.80
  WS02006242           JUNCTION     0.59     0.86     8.13     0  02:50        0.86
  WS02006243           JUNCTION     0.47     0.75     8.17     0  02:50        0.75
  WS02006245           JUNCTION     0.44     0.71     8.20     0  02:50        0.71
  WS02006247           JUNCTION     0.46     0.72     8.22     0  02:50        0.72
  WS02006248           JUNCTION     0.40     0.65     8.24     0  02:50        0.65
  WS02006249           JUNCTION     0.43     0.65     8.25     0  02:50        0.65
  WS02006239           JUNCTION     0.60     0.86     8.07     0  02:50        0.86
  WS02006251           JUNCTION     0.42     0.70     8.37     0  02:50        0.70
  WS02006252           JUNCTION     0.36     0.59     8.84     0  02:45        0.59
  WS02006253           JUNCTION     0.45     0.73     8.38     0  02:50        0.73
  WS02006256           JUNCTION     1.07     1.15     8.08     0  00:00        1.14
  WS02004138           JUNCTION     0.14     0.17     7.42     0  00:00        0.17
  WS02004407           JUNCTION     0.24     0.33     6.64     0  03:04        0.33
  WS02006228           JUNCTION     0.80     1.17     7.82     0  03:02        1.15
  WS02006229           JUNCTION     0.79     1.17     7.87     0  03:02        1.17
  WS02006280           JUNCTION     0.07     0.19     8.46     0  03:02        0.19
  WS02006284           JUNCTION     0.37     0.55     8.95     0  03:02        0.55
  WS02006287           JUNCTION     0.11     0.28     9.24     0  03:01        0.28
  WSF200               JUNCTION     0.24     0.34     5.58     0  03:03        0.34
  HS02004901           JUNCTION     0.13     0.28    10.10     0  03:01        0.28
  HS02004881           JUNCTION     0.01     0.04     9.07     0  03:01        0.04
  HS02004876           JUNCTION     0.05     0.12     9.15     0  03:01        0.12
  HS02004870           JUNCTION     0.02     0.06     9.35     0  03:01        0.06
  HS02004862           JUNCTION     0.02     0.07     9.46     0  03:01        0.07
  HS02004856           JUNCTION     0.08     0.13     9.55     0  03:01        0.13
  HS02004852           JUNCTION     0.01     0.05     9.56     0  03:01        0.05
  HS02004848           JUNCTION     0.01     0.05     9.65     0  03:01        0.05
  HS02004842           JUNCTION     0.33     0.38     9.65     0  03:01        0.38
  HS02004837           JUNCTION     0.03     0.07     9.65     0  03:01        0.07
  HS02004830           JUNCTION     0.04     0.08     9.55     0  03:01        0.08
  HS02004824           JUNCTION     0.03     0.06     9.46     0  03:01        0.06
  HS02004817           JUNCTION     0.44     0.60     9.44     0  03:01        0.60
  HS02004807           JUNCTION     0.13     0.27     9.44     0  03:01        0.27
  HS02004802           JUNCTION     0.17     0.30     9.43     0  03:01        0.30
  HS02004799           JUNCTION     0.13     0.33     9.54     0  03:01        0.33
  HS02004792           JUNCTION     0.04     0.14     9.66     0  03:01        0.14
  HS02004788           JUNCTION     0.03     0.10    10.00     0  03:01        0.10
  HS02004785           JUNCTION     0.05     0.17    10.07     0  03:01        0.17
  HS02004777           JUNCTION     0.15     0.30    10.10     0  03:01        0.30
  HS02004770           JUNCTION     0.12     0.27    10.10     0  03:01        0.27
  HS02004480           JUNCTION     0.09     0.26     9.50     0  03:01        0.26
  HS02004479           JUNCTION     0.13     0.30     9.50     0  03:01        0.30
  HS02004478           JUNCTION     0.07     0.18     9.41     0  03:01        0.18
  YS02001745           JUNCTION     0.68     0.87     8.39     0  03:28        0.87
  YS02001748           JUNCTION     1.07     2.27     9.35     0  02:43        1.32
  YS02001751           JUNCTION     1.26     2.18     9.06     0  02:44        1.52
  YS02001754           JUNCTION     1.51     2.11     8.72     0  02:44        1.80
  YS02001762           JUNCTION     1.71     2.03     8.43     0  03:09        2.02
  YS02001765           JUNCTION     1.66     1.98     8.43     0  03:33        1.96
  YS02001767           JUNCTION     1.63     1.93     8.42     0  03:23        1.92
  YS02001770           JUNCTION     1.62     1.92     8.41     0  02:44        1.90
  YS02001774           JUNCTION     1.69     1.99     8.41     0  02:41        1.97
  YS02001779           JUNCTION     1.44     1.68     8.37     0  02:41        1.68
  YS02001882           JUNCTION     0.54     1.61     8.33     0  03:00        1.60
  YS02001884           JUNCTION     0.63     1.71     8.32     0  03:00        1.70
  YS02001759           JUNCTION     1.74     2.07     8.43     0  03:22        2.06
  YS02001887           JUNCTION     0.71     1.79     8.33     0  03:00        1.78
  YS02001890           JUNCTION     0.74     1.80     8.31     0  02:58        1.80
  YS02001898           JUNCTION     0.51     1.55     8.29     0  03:00        1.55
  YS02001901           JUNCTION     0.63     1.67     8.28     0  03:01        1.67
  YS02001904           JUNCTION     0.61     1.63     8.26     0  03:02        1.63
  YS02001907           JUNCTION     0.93     1.96     8.25     0  02:52        1.96
  YS02001910           JUNCTION     0.73     1.78     8.29     0  02:54        1.76
  YS02001915           JUNCTION     0.52     1.59     8.31     0  02:54        1.58
  YS02001918           JUNCTION     0.27     1.26     8.33     0  02:53        1.25
  YS02001619           JUNCTION     1.23     1.61     8.54     0  02:40        1.47
  YS02001629           JUNCTION     1.58     1.85     8.40     0  02:41        1.84
  YS02001641           JUNCTION     1.68     1.99     8.43     0  02:43        1.93
  YS02001644           JUNCTION     1.68     1.92     8.35     0  02:43        1.92
  YS02001652           JUNCTION     1.52     2.16     8.76     0  02:39        2.06
  YS02001655           JUNCTION     1.29     2.20     9.05     0  02:39        1.95
  YS02001920           JUNCTION     0.37     1.34     8.35     0  02:53        1.33
  YS02001923           JUNCTION     0.21     1.10     8.36     0  02:53        1.09
  YS02001926           JUNCTION     0.26     0.91     8.36     0  02:53        0.89
  YS02001929           JUNCTION     0.15     0.69     8.39     0  02:53        0.67
  YS02001658           JUNCTION     1.02     2.30     9.44     0  02:41        1.70
  YS02001661           JUNCTION     0.79     2.43     9.83     0  03:04        1.95
  YS02001664           JUNCTION     0.35     0.57     8.49     0  02:56        0.56
  YS02001622           JUNCTION     1.25     1.62     8.52     0  02:41        1.49
  YS02001633           JUNCTION     1.67     2.02     8.48     0  02:44        1.94
  YS02001649           JUNCTION     1.72     2.05     8.44     0  02:56        2.05
  YS02001757           JUNCTION     1.84     2.17     8.43     0  03:30        2.16
  YS02001895           JUNCTION     0.50     1.56     8.30     0  03:00        1.55
  YS02001625           JUNCTION     1.53     1.78     8.38     0  02:40        1.78
  YS02163301           JUNCTION     1.61     1.94     8.45     0  02:44        1.88
  YS02163601           JUNCTION     1.72     2.07     8.47     0  02:43        1.98
  YS02164001           JUNCTION     1.66     2.01     8.46     0  02:43        1.91
  YS02001647           JUNCTION     1.51     1.81     8.42     0  02:45        1.79
  YSB1154              JUNCTION     0.27     0.45     9.51     0  03:01        0.45
  YSB6556              JUNCTION     0.16     0.34     9.51     0  03:01        0.34
  YSB1174              JUNCTION     0.22     0.40     9.51     0  03:01        0.40
  YSB1171              JUNCTION     0.42     0.60     9.51     0  03:01        0.60
  YS02006553           JUNCTION     0.94     1.96     8.25     0  03:04        1.96
  YS02006561           JUNCTION     0.31     1.08     7.74     0  02:59        1.07
  YS02006556           JUNCTION     0.90     1.92     8.23     0  02:59        1.91
  YS02006558           JUNCTION     0.95     1.96     8.23     0  03:00        1.95
  YS02001783           JUNCTION     0.56     2.18     8.32     0  02:37        1.47
  YS02001784           JUNCTION     0.58     2.01     8.08     0  02:37        1.41
  YS02001786           JUNCTION     0.53     2.00     8.03     0  02:37        1.25
  YS02001788           JUNCTION     0.48     1.94     7.91     0  02:37        1.12
  YS02001790           JUNCTION     0.62     1.96     7.60     0  02:36        1.29
  YS02001791           JUNCTION     0.62     1.76     7.23     0  02:37        1.27
  YS02001793           JUNCTION     0.90     2.44     7.27     0  02:34        1.80
  WS02004139           JUNCTION     0.59     0.67     5.58     0  02:40        0.67
  WSC                  OUTFALL      0.31     0.39     1.06     0  02:44        0.39
  3                    OUTFALL      0.10     0.14     6.14     0  02:51        0.14
  4                    OUTFALL      0.03     0.15     7.15     0  02:50        0.15
  5                    OUTFALL      0.00     0.00     5.00     0  00:00        0.00
  JK-storage           STORAGE      3.28     5.80     6.60     0  02:37        5.80
  CC-storage           STORAGE      1.06     1.37     8.37     0  03:30        1.37
  XR-storage           STORAGE      7.02     7.72     5.72     0  02:49        7.72
  
  
  *******************
  Node Inflow Summary
  *******************
  
  -------------------------------------------------------------------------------------------------
                                  Maximum  Maximum                  Lateral       Total        Flow
                                  Lateral    Total  Time of Max      Inflow      Inflow     Balance
                                   Inflow   Inflow   Occurrence      Volume      Volume       Error
  Node                 Type           LPS      LPS  days hr:min    10^6 ltr    10^6 ltr     Percent
  -------------------------------------------------------------------------------------------------
  WS02001211           JUNCTION      7.35   293.28     0  03:34       0.207        6.44       0.561
  WS02001212           JUNCTION      0.00   294.00     0  03:33           0        6.41       0.319
  WS02001213           JUNCTION      0.00   294.64     0  03:33           0        6.39       0.384
  WS02003069           JUNCTION      0.32   929.23     0  02:42     0.00902        15.2       0.208
  WS02003072           JUNCTION      0.00   929.10     0  02:42           0        15.2       0.253
  WS02003073           JUNCTION      1.82   930.78     0  02:43      0.0514        15.2       0.287
  WS02003060           JUNCTION     16.53   928.86     0  02:41       0.466        15.3       0.196
  WS02003066           JUNCTION      0.00   660.42     0  03:05           0        8.48       0.054
  WS02003059           JUNCTION      0.00   295.78     0  03:32           0        6.36       0.607
  WS02003067           JUNCTION      0.00   660.40     0  03:05           0        8.49       0.113
  WS02004401           JUNCTION      0.00   661.59     0  03:03           0        8.73       0.252
  WS02004402           JUNCTION      0.00   661.43     0  03:03           0        8.71       0.237
  WS02004403           JUNCTION      0.00   660.91     0  03:03           0        8.68       0.215
  WS02004404           JUNCTION      0.16   660.87     0  03:04     0.00457        8.67       0.162
  WS02004406           JUNCTION      0.00   660.94     0  03:04           0        8.64       0.393
  WS02004409           JUNCTION      0.00   660.90     0  03:04           0         8.6       0.198
  WS02004410           JUNCTION      0.00   660.75     0  03:04           0        8.58       0.223
  WS02004411           JUNCTION      0.00   660.63     0  03:04           0        8.56       0.228
  WS02004412           JUNCTION      0.00   660.51     0  03:05           0        8.54       0.246
  WS02004413           JUNCTION      0.00   660.49     0  03:05           0        8.52       0.362
  WS02004405           JUNCTION      0.04   660.92     0  03:04     0.00107        8.66       0.241
  WS02006109           JUNCTION      1.23   651.18     0  03:02      0.0347        8.79       0.249
  WS02006110           JUNCTION      0.00   651.14     0  03:02           0        8.77       0.231
  WS02006111           JUNCTION      0.00   683.65     0  03:02           0        8.74       0.054
  WS02006112           JUNCTION     14.47   664.13     0  02:57      0.0629         8.8       0.338
  WS02006113           JUNCTION      0.00   654.30     0  03:01           0        8.75       0.113
  WS02006115           JUNCTION      0.00   664.82     0  02:57           0        8.77       0.236
  WS02006116           JUNCTION      0.00   662.93     0  02:57           0        8.75       0.224
  WS02006230           JUNCTION     10.28   393.04     0  04:12        0.29        6.91       0.197
  WS02006231           JUNCTION      0.00   383.86     0  04:12           0        6.63       0.175
  WS02006232           JUNCTION      0.00   383.97     0  04:12           0        6.65       0.248
  WS02006234           JUNCTION      0.00   385.21     0  04:11           0        6.66       0.129
  WS02006235           JUNCTION      0.00   385.16     0  04:11           0        6.69       0.161
  WS02006238           JUNCTION      0.00   313.79     0  07:20           0        4.62       0.173
  WS02006240           JUNCTION      0.00   314.82     0  07:12           0        4.62       0.266
  WS02006242           JUNCTION      0.00   318.47     0  07:11           0        4.62       0.318
  WS02006243           JUNCTION      0.00   324.21     0  07:10           0        4.62       0.140
  WS02006245           JUNCTION      0.00   328.04     0  07:10           0        4.63       0.193
  WS02006247           JUNCTION      0.00   331.92     0  07:10           0        4.63       0.147
  WS02006248           JUNCTION      0.00   335.72     0  07:10           0        4.64       0.080
  WS02006249           JUNCTION      0.00   471.35     0  02:50           0        5.21       0.211
  WS02006239           JUNCTION      0.00   313.90     0  07:13           0        4.61       0.258
  WS02006251           JUNCTION      0.08   471.74     0  02:50     0.00217        5.22       0.167
  WS02006252           JUNCTION      0.00   400.00     0  02:30           0        4.85       0.009
  WS02006253           JUNCTION      1.91    81.00     0  03:01     0.00814       0.373       1.021
  WS02006256           JUNCTION      0.00   300.00     0  00:00           0        5.64       0.052
  WS02004138           JUNCTION      0.00   285.00     0  00:00           0        6.27       0.083
  WS02004407           JUNCTION      0.00   660.97     0  03:04           0         8.6       0.089
  WS02006228           JUNCTION      0.00   650.02     0  03:02           0        8.77       0.178
  WS02006229           JUNCTION      0.00   648.35     0  03:02           0        8.78       0.142
  WS02006280           JUNCTION      0.00   375.55     0  03:02           0        1.89       0.004
  WS02006284           JUNCTION      0.10   375.54     0  03:02      0.0027        1.89       0.064
  WS02006287           JUNCTION      0.00   375.27     0  03:01           0        1.89       0.038
  WSF200               JUNCTION      0.00   660.46     0  03:05           0        8.47       0.052
  HS02004901           JUNCTION     17.47    17.47     0  03:01      0.0757      0.0759       2.380
  HS02004881           JUNCTION      7.55    79.19     0  03:01      0.0331       0.357       0.084
  HS02004876           JUNCTION     14.15    72.10     0  03:01      0.0636       0.324       0.171
  HS02004870           JUNCTION     14.17    58.27     0  03:01      0.0626       0.261       0.043
  HS02004862           JUNCTION     13.95    44.46     0  03:01      0.0685       0.198       0.088
  HS02004856           JUNCTION     10.64    30.79     0  03:01      0.0471       0.131       1.116
  HS02004852           JUNCTION      0.00    20.44     0  03:01           0       0.084       0.069
  HS02004848           JUNCTION     32.07    32.07     0  03:01       0.151       0.151       0.033
  HS02004842           JUNCTION      0.00    11.42     0  03:01           0      0.0801      19.390
  HS02004837           JUNCTION     30.75    41.91     0  03:01       0.288       0.355       0.230
  HS02004830           JUNCTION      0.15    41.84     0  03:01     0.00423       0.346       0.359
  HS02004824           JUNCTION     40.25    81.79     0  03:01       0.197       0.542       0.100
  HS02004817           JUNCTION      0.60    82.18     0  03:01      0.0169       0.558       3.079
  HS02004807           JUNCTION     26.15   107.25     0  03:01       0.115       0.657       0.656
  HS02004802           JUNCTION      0.00   106.49     0  03:01           0       0.653       0.617
  HS02004799           JUNCTION     21.02   227.51     0  03:01      0.0932        1.06       0.236
  HS02004792           JUNCTION     88.55   207.33     0  03:01       0.396       0.966       0.043
  HS02004788           JUNCTION     30.78   119.38     0  03:01       0.177       0.571       0.069
  HS02004785           JUNCTION      0.15    89.79     0  03:01     0.00423       0.396       0.125
  HS02004777           JUNCTION      0.03    90.24     0  03:01    0.000846       0.397       1.326
  HS02004770           JUNCTION     73.89    90.93     0  03:01       0.324       0.398       0.787
  HS02004480           JUNCTION      0.00   269.28     0  03:01           0        1.25       0.099
  HS02004479           JUNCTION      0.00    42.82     0  03:02           0       0.204       0.360
  HS02004478           JUNCTION      0.00   375.17     0  03:01           0        1.89       0.018
  YS02001745           JUNCTION    297.18   442.01     0  02:42        2.34        2.35       0.438
  YS02001748           JUNCTION      0.04   632.67     0  02:43     0.00127        2.34       0.980
  YS02001751           JUNCTION      0.01   348.05     0  02:40     0.00031        2.31       1.040
  YS02001754           JUNCTION      0.26   309.26     0  03:01     0.00733        2.29       1.093
  YS02001762           JUNCTION      0.00   352.52     0  02:57           0        1.89       1.124
  YS02001765           JUNCTION      0.00   352.47     0  02:57           0        1.89       1.300
  YS02001767           JUNCTION      0.54   352.44     0  02:57      0.0151        1.91       1.904
  YS02001770           JUNCTION    373.02   373.02     0  03:01        2.63        2.65       1.211
  YS02001774           JUNCTION      0.00   263.81     0  03:31           0       0.746       3.474
  YS02001779           JUNCTION      0.01   264.09     0  03:31    0.000141       0.715       2.198
  YS02001882           JUNCTION      0.00    29.64     0  02:39           0       0.023      10.695
  YS02001884           JUNCTION      0.00    58.88     0  02:39           0      0.0586      11.631
  YS02001759           JUNCTION    359.84   694.09     0  02:58        2.43        4.26       0.540
  YS02001887           JUNCTION    453.35   453.53     0  03:01         2.8        2.83       0.301
  YS02001890           JUNCTION      0.00   453.53     0  03:01           0        2.79       0.330
  YS02001898           JUNCTION      0.00   453.57     0  03:01           0        2.77       0.118
  YS02001901           JUNCTION      0.00   453.81     0  03:01           0        2.77       0.244
  YS02001904           JUNCTION      0.00   453.72     0  03:01           0        2.77       0.223
  YS02001907           JUNCTION      0.00   872.90     0  02:58           0        6.12       0.391
  YS02001910           JUNCTION      0.00   446.24     0  02:54           0        3.37       0.352
  YS02001915           JUNCTION    263.65   446.19     0  02:54        1.96        3.39       0.176
  YS02001918           JUNCTION      0.00   211.36     0  02:54           0        1.44       0.134
  YS02001619           JUNCTION    257.27   257.27     0  03:01        1.95        1.95       0.631
  YS02001629           JUNCTION      0.00   213.11     0  02:51           0        1.64       1.777
  YS02001641           JUNCTION      0.00   451.77     0  02:51           0        3.85       0.548
  YS02001644           JUNCTION    282.70   974.86     0  03:29        2.25        7.95       0.328
  YS02001652           JUNCTION      0.00   373.73     0  03:01           0        2.04       1.148
  YS02001655           JUNCTION      0.15   402.18     0  02:38     0.00434        2.06       1.240
  YS02001920           JUNCTION      2.87   211.25     0  02:54      0.0809        1.43       0.207
  YS02001923           JUNCTION      0.04   233.21     0  02:54     0.00106        1.34       0.049
  YS02001926           JUNCTION      0.05   186.10     0  02:54     0.00147        1.34       0.248
  YS02001929           JUNCTION    129.40   129.40     0  03:01        1.34        1.34       0.040
  YS02001658           JUNCTION      0.00   627.26     0  02:41           0        2.09       1.076
  YS02001661           JUNCTION      0.00   698.18     0  02:57           0        2.82      -0.076
  YS02001664           JUNCTION    327.80   353.03     0  02:55        2.09        2.82       0.206
  YS02001622           JUNCTION      0.00   257.59     0  03:01           0        1.94       1.662
  YS02001633           JUNCTION    287.40   451.84     0  02:51        2.32        3.91       0.825
  YS02001649           JUNCTION      0.00   963.18     0  02:51           0        4.95       0.759
  YS02001757           JUNCTION      0.00  1829.83     0  02:52           0        9.51       0.980
  YS02001895           JUNCTION      0.00   453.63     0  03:01           0        2.78       0.175
  YS02001625           JUNCTION      0.00   257.36     0  03:01           0         1.9       2.049
  YS02163301           JUNCTION      0.00   218.05     0  02:39           0        1.62       1.494
  YS02163601           JUNCTION      0.11   451.92     0  02:51      0.0031        3.88       0.780
  YS02164001           JUNCTION      0.00   451.81     0  02:51           0        3.86       0.520
  YS02001647           JUNCTION      0.00   686.77     0  02:51           0        3.85       0.736
  YSB1154              JUNCTION     25.19    25.19     0  03:01       0.113       0.114       1.285
  YSB6556              JUNCTION      0.00    24.91     0  03:01           0       0.115       1.100
  YSB1174              JUNCTION     19.06    19.06     0  03:01      0.0821      0.0827       1.580
  YSB1171              JUNCTION      0.00    43.19     0  03:01           0       0.203       3.219
  YS02006553           JUNCTION      0.00   667.17     0  03:17           0         5.9       0.262
  YS02006561           JUNCTION      0.00   964.18     0  03:00           0        8.42       0.007
  YS02006556           JUNCTION      0.00   667.00     0  03:17           0         5.9       0.190
  YS02006558           JUNCTION    392.87   964.50     0  03:00        2.57        8.45       0.064
  YS02001783           JUNCTION      0.00   964.16     0  03:00           0        8.42       0.029
  YS02001784           JUNCTION      1.06   965.16     0  03:00      0.0299        8.44       0.044
  YS02001786           JUNCTION      0.06   965.23     0  03:00     0.00159        8.44       0.041
  YS02001788           JUNCTION      0.07   965.25     0  03:00       0.002        8.44       0.023
  YS02001790           JUNCTION      0.15   965.56     0  03:00     0.00437        8.44       0.030
  YS02001791           JUNCTION      0.00   965.59     0  03:00           0        8.44       0.013
  YS02001793           JUNCTION      0.00   965.63     0  03:00           0        8.44       0.005
  WS02004139           JUNCTION      0.32   290.40     0  00:00     0.00905        6.27       0.626
  WSC                  OUTFALL       0.00   930.58     0  02:44           0        15.2       0.000
  3                    OUTFALL       0.00   261.57     0  02:51           0        3.53       0.000
  4                    OUTFALL       0.00   217.90     0  02:50           0       0.559       0.000
  5                    OUTFALL       0.00     0.00     0  00:00           0           0       0.000 ltr
  JK-storage           STORAGE       0.00   965.72     0  03:00           0        8.59      -0.317
  CC-storage           STORAGE       0.00  1829.31     0  02:52           0        8.43       0.588
  XR-storage           STORAGE     690.11   690.11     0  03:01        9.61        10.2      -0.002
  
  
  **********************
  Node Surcharge Summary
  **********************
  
  Surcharging occurs when water rises above the top of the highest conduit.
  ---------------------------------------------------------------------
                                               Max. Height   Min. Depth
                                   Hours       Above Crown    Below Rim
  Node                 Type      Surcharged         Meters       Meters
  ---------------------------------------------------------------------
  WS02004404           JUNCTION        0.73          0.055        2.725
  WS02004406           JUNCTION        0.49          0.028        2.422
  WS02004405           JUNCTION        0.64          0.042        2.758
  WS02006109           JUNCTION        2.31          0.288        1.532
  WS02006110           JUNCTION        1.11          0.121        1.729
  WS02006112           JUNCTION        1.24          0.189        1.491
  WS02006230           JUNCTION        0.69          0.079        1.491
  WS02006231           JUNCTION        0.82          0.102        1.428
  WS02006232           JUNCTION        2.27          0.236        1.244
  WS02006234           JUNCTION        1.03          0.130        1.110
  WS02006235           JUNCTION        1.51          0.169        1.121
  WS02006238           JUNCTION        1.85          0.183        1.247
  WS02006240           JUNCTION        0.82          0.094        1.296
  WS02006242           JUNCTION        1.42          0.132        0.688
  WS02006243           JUNCTION        0.52          0.036        0.734
  WS02006245           JUNCTION        0.06          0.002        0.848
  WS02006247           JUNCTION        0.21          0.007        0.753
  WS02006239           JUNCTION        1.04          0.121        1.169
  WS02006252           JUNCTION        1.52          0.193        0.907
  WS02006228           JUNCTION        2.24          0.336        1.864
  YS02001748           JUNCTION        5.03          1.190        0.000
  YS02001751           JUNCTION        5.16          1.183        0.017
  YS02001754           JUNCTION        5.39          1.065        0.085
  YS02001762           JUNCTION        5.64          1.029        0.121
  YS02001765           JUNCTION        5.61          0.975        0.125
  YS02001767           JUNCTION        5.58          0.931        0.099
  YS02001770           JUNCTION        5.56          0.885        0.035
  YS02001774           JUNCTION        5.63          0.989        0.061
  YS02001779           JUNCTION        5.39          0.680        0.000
  YS02001882           JUNCTION        0.79          0.609        0.221
  YS02001884           JUNCTION        0.83          0.648        0.222
  YS02001759           JUNCTION        5.66          1.068        0.142
  YS02001887           JUNCTION        0.92          0.738        0.212
  YS02001890           JUNCTION        0.95          0.755        0.005
  YS02001898           JUNCTION        0.75          0.522        0.218
  YS02001901           JUNCTION        0.88          0.671        0.199
  YS02001904           JUNCTION        0.86          0.634        0.216
  YS02001907           JUNCTION        1.49          0.950        0.000
  YS02001910           JUNCTION        1.00          0.778        0.322
  YS02001915           JUNCTION        0.78          0.588        0.412
  YS02001918           JUNCTION        0.53          0.265        0.545
  YS02001619           JUNCTION        5.20          0.610        0.000
  YS02001629           JUNCTION        5.21          0.470        0.000
  YS02001641           JUNCTION        5.62          0.991        0.109
  YS02001644           JUNCTION        5.62          0.920        0.000
  YS02001652           JUNCTION        5.41          1.130        0.000
  YS02001655           JUNCTION        5.20          1.200        0.000
  YS02001920           JUNCTION        0.56          0.341        0.799
  YS02001658           JUNCTION        5.06          1.300        0.000
  YS02001661           JUNCTION        0.22          1.360        0.030
  YS02001622           JUNCTION        5.25          0.620        0.000
  YS02001633           JUNCTION        5.60          1.003        0.057
  YS02001649           JUNCTION        5.64          1.050        0.000
  YS02001757           JUNCTION        5.74          1.170        0.040
  YS02001895           JUNCTION        0.76          0.555        0.195
  YS02001625           JUNCTION        5.43          0.780        0.000
  YS02163301           JUNCTION        5.58          0.935        0.095
  YS02163601           JUNCTION        5.64          1.067        0.013
  YS02164001           JUNCTION        5.61          1.006        0.094
  YS02001647           JUNCTION        5.41          0.810        0.090
  YS02006553           JUNCTION        1.55          0.964        0.226
  YS02006561           JUNCTION        0.66          0.280        0.870
  YS02006556           JUNCTION        1.20          0.882        0.468
  YS02006558           JUNCTION        1.17          0.859        0.541
  YS02001783           JUNCTION        1.28          1.381        0.219
  YS02001784           JUNCTION        1.33          1.213        0.277
  YS02001786           JUNCTION        1.28          1.199        0.231
  YS02001788           JUNCTION        1.27          1.136        0.344
  YS02001790           JUNCTION        2.66          1.157        0.000
  YS02001791           JUNCTION        2.79          0.955        0.965
  YS02001793           JUNCTION        2.99          1.436        1.164
  
  
  *********************
  Node Flooding Summary
  *********************
  
  Flooding refers to all water that overflows a node, whether it ponds or not.
  --------------------------------------------------------------------------
                                                             Total   Maximum
                                 Maximum   Time of Max       Flood    Ponded
                        Hours       Rate    Occurrence      Volume     Depth
  Node                 Flooded       LPS   days hr:min    10^6 ltr    Meters
  --------------------------------------------------------------------------
  YS02001748              0.01    189.23      0  02:44       0.000     0.000
  YS02001779              2.45    263.93      0  03:31       0.695     0.000
  YS02001907              0.38    289.43      0  02:58       0.211     0.000
  YS02001619              0.01     17.53      0  02:41       0.000     0.000
  YS02001629              0.01     37.97      0  02:41       0.001     0.000
  YS02001644              4.29    974.82      0  03:29       5.948     0.000
  YS02001652              0.01     25.14      0  02:39       0.000     0.000
  YS02001655              0.01    145.95      0  02:39       0.000     0.000
  YS02001658              0.01    344.31      0  02:41       0.000     0.000
  YS02001622              0.01     43.76      0  02:41       0.000     0.000
  YS02001649              0.08     43.95      0  03:04       0.004     0.000
  YS02001625              0.82    167.65      0  03:01       0.225     0.000
  YS02001790              0.01    111.69      0  02:36       0.000     0.000
  JK-storage              2.35    665.53      0  03:00       2.977     0.000
  XR-storage              4.64    535.89      0  03:10       3.039     0.000
  
  
  **********************
  Storage Volume Summary
  **********************
  
  --------------------------------------------------------------------------------------------------
                         Average     Avg  Evap Exfil       Maximum     Max    Time of Max    Maximum
                          Volume    Pcnt  Pcnt  Pcnt        Volume    Pcnt     Occurrence    Outflow
  Storage Unit           1000 m3    Full  Loss  Loss       1000 m3    Full    days hr:min        LPS
  --------------------------------------------------------------------------------------------------
  JK-storage               0.165      57     0     0         0.291     100       0  02:37     300.00
  CC-storage               2.951      19     0     0         3.826      24       0  03:30     400.00
  XR-storage               0.843      91     0     0         0.926     100       0  02:49     285.00
  
  
  ***********************
  Outfall Loading Summary
  ***********************
  
  -----------------------------------------------------------
                         Flow       Avg       Max       Total
                         Freq      Flow      Flow      Volume
  Outfall Node           Pcnt       LPS       LPS    10^6 ltr
  -----------------------------------------------------------
  WSC                   99.99    609.55    930.58      15.175
  3                     95.58    164.31    261.57       3.534
  4                     31.93     80.28    217.90       0.559
  5                      0.00      0.00      0.00       0.000
  -----------------------------------------------------------
  System                56.88    854.15   1398.74      19.269
  
  
  ********************
  Link Flow Summary
  ********************
  
  -----------------------------------------------------------------------------
                                 Maximum  Time of Max   Maximum    Max/    Max/
                                  |Flow|   Occurrence   |Veloc|    Full    Full
  Link                 Type          LPS  days hr:min     m/sec    Flow   Depth
  -----------------------------------------------------------------------------
  WS02003066WSF200     CONDUIT    660.46     0  03:05      2.90    0.11    0.26
  WS02006287WS02006284 CONDUIT    375.44     0  03:02      1.98    0.17    0.29
  WS02006284WS02006280 CONDUIT    375.55     0  03:02      2.22    0.16    0.27
  WS02006280WS02006229 CONDUIT    375.58     0  03:02      3.58    0.08    0.19
  WS02006229WS02006228 CONDUIT    650.02     0  03:02      1.29    2.15    1.00
  WS02006256WS02006235 CONDUIT    166.25     0  00:01      2.58    1.76    1.00
  WS02006253WS02006251 CONDUIT     84.36     0  03:00      0.46    0.25    1.00
  WS02006252WS02006251 CONDUIT    400.45     0  07:10      3.19    1.47    1.00
  WS02006251WS02006249 CONDUIT    471.35     0  02:50      1.24    1.36    0.97
  WS02006249WS02006248 CONDUIT    335.72     0  07:10      1.08    1.84    0.92
  WS02006248WS02006247 CONDUIT    331.92     0  07:10      1.05    0.72    0.96
  WS02006247WS02006245 CONDUIT    328.04     0  07:10      1.01    2.60    1.00
  WS02006245WS02006243 CONDUIT    324.21     0  07:10      1.10    0.96    1.00
  WS02006243WS02006242 CONDUIT    318.47     0  07:11      0.89    0.68    1.00
  WS02006242WS02006240 CONDUIT    314.82     0  07:12      0.83    1.25    1.00
  WS02006240WS02006239 CONDUIT    313.90     0  07:13      0.83    0.99    1.00
  WS02006239WS02006238 CONDUIT    313.79     0  07:20      0.82    1.00    1.00
  WS02006238WS02006235 CONDUIT    313.79     0  07:20      1.25    0.70    1.00
  WS02006235WS02006234 CONDUIT    385.21     0  04:11      1.01    4.06    1.00
  WS02006234WS02006232 CONDUIT    383.97     0  04:12      1.13    0.78    1.00
  WS02006232WS02006231 CONDUIT    383.86     0  04:12      1.04    0.80    1.00
  WS02006231WS02006230 CONDUIT    382.76     0  04:12      1.32    5.81    1.00
  WS02006230WS02006229 CONDUIT    392.88     0  04:13      1.02    8.74    1.00
  WS02006228WS02006109 CONDUIT    649.95     0  03:02      1.29    2.84    1.00
  WS02006116WS02004401 CONDUIT    661.59     0  03:03      0.85    0.91    0.96
  WS02006115WS02006116 CONDUIT    662.93     0  02:57      0.90    0.85    0.89
  WS02006113WS02006111 CONDUIT    683.65     0  03:02      2.59    0.82    0.53
  WS02006112WS02006115 CONDUIT    664.82     0  02:57      0.87    0.39    0.94
  WS02006111WS02006112 CONDUIT    651.71     0  03:03      1.72    0.31    0.71
  WS02006110WS02006113 CONDUIT    654.30     0  03:01      1.49    0.60    0.82
  WS02006109WS02006110 CONDUIT    651.14     0  03:02      1.30    1.25    1.00
  WS02004411WS02004412 CONDUIT    660.51     0  03:05      1.03    0.94    0.76
  WS02004401WS02004402 CONDUIT    661.43     0  03:03      0.85    0.79    0.98
  WS02004413WS02003067 CONDUIT    660.40     0  03:05      1.25    0.28    0.64
  WS02004412WS02004413 CONDUIT    660.49     0  03:05      0.94    0.44    0.84
  WS02004410WS02004411 CONDUIT    660.63     0  03:04      1.03    0.90    0.76
  WS02004409WS02004410 CONDUIT    660.75     0  03:04      1.04    0.85    0.76
  WS02004407WS02004409 CONDUIT    660.90     0  03:04      1.53    0.23    0.54
  WS02004406WS02004407 CONDUIT    660.97     0  03:04      1.19    0.30    0.66
  WS02004405WS02004406 CONDUIT    660.94     0  03:04      0.84    1.30    1.00
  WS02004404WS02004405 CONDUIT    660.88     0  03:04      0.84    6.47    1.00
  WS02004403WS02004404 CONDUIT    660.71     0  03:04      0.84    0.48    1.00
  WS02004402WS02004403 CONDUIT    660.91     0  03:03      0.84    0.95    0.99
  WS02004139WS02001211 CONDUIT    285.93     0  03:34      0.81    0.36    0.54
  WS02004138WS02004139 CONDUIT    290.07     0  00:00      3.33    0.06    0.39
  WS02003067WS02003066 CONDUIT    660.42     0  03:05      1.36    0.21    0.45
  WS02001213WS02003059 CONDUIT    295.78     0  03:32      0.80    0.49    0.74
  WS02001212WS02001213 CONDUIT    294.64     0  03:33      1.19    0.45    0.43
  WS02001211WS02001212 CONDUIT    294.00     0  03:33      0.67    0.22    0.60
  WS02003072WS02003073 CONDUIT    928.96     0  02:43      1.72    2.01    0.48
  WS02003069WS02003072 CONDUIT    929.10     0  02:42      1.62    0.45    0.51
  WS02003060WS02003069 CONDUIT    928.91     0  02:42      1.86    0.36    0.45
  WS02003059WS02003060 CONDUIT    297.29     0  03:32      0.82    0.19    0.65
  HS02004901HS02004770 CONDUIT     17.71     0  03:01      0.07    0.07    0.39
  HS02004876HS02004881 CONDUIT     71.90     0  03:01      0.92    0.76    0.11
  HS02004870HS02004876 CONDUIT     58.03     0  03:01      0.63    0.04    0.13
  HS02004842HS02004848 CONDUIT     11.42     0  03:01      0.05    0.01    0.30
  HS02004837HS02004842 CONDUIT     11.94     0  03:02      0.41    0.01    0.32
  HS02004830HS02004837 CONDUIT     41.69     0  03:01      0.56    0.04    0.11
  HS02004824HS02004830 CONDUIT     41.67     0  03:01      0.58    0.05    0.10
  HS02004817HS02004824 CONDUIT     81.58     0  03:01      0.25    0.04    0.47
  HS02004770HS02004777 CONDUIT     90.21     0  03:01      0.32    0.16    0.41
  HS02004799HS02004480 CONDUIT    226.98     0  03:01      0.78    0.29    0.42
  HS02004792HS02004799 CONDUIT    206.60     0  03:01      0.88    0.13    0.33
  HS02004788HS02004792 CONDUIT    118.94     0  03:01      1.01    0.08    0.17
  HS02004785HS02004788 CONDUIT     89.52     0  03:02      0.66    0.67    0.19
  HS02004777HS02004785 CONDUIT     89.64     0  03:01      0.38    0.11    0.33
  HS02004480HS02004478 CONDUIT    269.12     0  03:01      1.20    1.13    0.32
  HS02004479HS02004480 CONDUIT     44.17     0  03:02      0.23    0.04    0.40
  HS02004862HS02004870 CONDUIT     44.23     0  03:01      0.64    0.05    0.10
  HS02004848HS02004852 CONDUIT     20.44     0  03:01      0.44    0.02    0.07
  HS02004856HS02004862 CONDUIT     30.57     0  03:01      0.47    0.03    0.09
  HS02004852HS02004856 CONDUIT     20.26     0  03:01      0.24    0.02    0.12
  HS02004802HS02004478 CONDUIT    106.59     0  03:02      0.45    0.09    0.35
  HS02004478WS02006287 CONDUIT    375.27     0  03:01      1.68    0.11    0.25
  HS02004817HS02004807 CONDUIT     82.18     0  03:01      0.19    0.05    0.62
  HS02004807HS02004802 CONDUIT    106.49     0  03:01      0.38    0.20    0.40
  YS02001759YS02001757 CONDUIT    694.40     0  02:58      0.88    0.49    1.00
  YS02001762YS02001759 CONDUIT    352.64     0  02:57      0.45    0.41    1.00
  YS02001765YS02001762 CONDUIT    352.52     0  02:57      0.45    0.33    1.00
  YS02001770YS02001767 CONDUIT    351.91     0  02:57      0.45    1.39    1.00
  YS02001774YS02001770 CONDUIT    263.81     0  03:31      0.34    0.17    1.00
  YS02001779YS02001774 CONDUIT    264.08     0  03:31      0.34    0.13    1.00
  YS02001649YS02001757 CONDUIT    963.59     0  02:51      1.23    0.58    1.00
  YS02001767YS02001765 CONDUIT    352.47     0  02:57      0.45    0.44    1.00
  YS02006561YS02001783 CONDUIT    964.16     0  03:00      2.14    0.50    1.00
  YS02001783YS02001784 CONDUIT    964.10     0  03:00      1.92    1.33    1.00
  YS02001784YS02001785 CONDUIT    965.18     0  03:00      1.92    2.25    1.00
  YS02001788YS02001790 CONDUIT    965.41     0  03:00      2.29    0.71    1.00
  YS02001790YS02001791 CONDUIT    965.59     0  03:00      2.77    1.05    1.00
  YS02001791YS02001793 CONDUIT    965.63     0  03:00      5.55    0.41    1.00
  YS02001910YS02001907 CONDUIT    446.25     0  02:54      0.57    0.25    1.00
  YS02001786YS02001788 CONDUIT    965.18     0  03:00      2.20    1.86    1.00
  YS02001915YS02001910 CONDUIT    446.24     0  02:54      0.57    0.22    1.00
  YS02001918YS02001915 CONDUIT    212.12     0  02:54      0.44    0.12    1.00
  YS02001923YS02001920 CONDUIT    208.38     0  02:54      0.68    0.09    1.00
  YS02001926YS02001923 CONDUIT    233.17     0  02:54      0.79    0.33    0.89
  YS02001929YS02001926 CONDUIT    186.05     0  02:54      0.84    0.09    0.80
  YS02001920YS02001918 CONDUIT    211.36     0  02:54      0.67    0.20    1.00
  YS02001629YS02163301 CONDUIT    218.05     0  02:39      0.28    0.27    1.00
  YS02001619YS02001622 CONDUIT    257.59     0  03:01      0.61    0.38    1.00
  YS02001622YS02001625 CONDUIT    257.36     0  03:01      0.33    0.14    1.00
  YS02001625YS02001629 CONDUIT    213.11     0  02:51      0.27    0.10    1.00
  YS02163301YS02001633 CONDUIT    218.03     0  02:39      0.28    0.20    1.00
  YS02163601YS02164001 CONDUIT    451.81     0  02:51      0.58    0.40    1.00
  YS02164001YS02001641 CONDUIT    451.77     0  02:51      0.58    0.62    1.00
  YS02001641YS02001644 CONDUIT    451.55     0  02:51      0.57    1.46    1.00
  YS02001647YS02001649 CONDUIT    686.59     0  02:51      0.87    0.36    1.00
  YS02006553YS02006556 CONDUIT    667.00     0  03:17      0.85    0.57    1.00
  YS02006556YS02006558 CONDUIT    667.28     0  03:17      0.85    0.53    1.00
  YSB6556YSB1171       CONDUIT     24.81     0  03:03      0.09    0.03    0.67
  YS02001907YS02006553 CONDUIT    667.17     0  03:17      0.74    0.78    1.00
  YS02006558YS02006561 CONDUIT    964.18     0  03:00      3.41    2.13    1.00
  YS02001633YS02163601 CONDUIT    451.81     0  02:51      0.58    0.47    1.00
  YS02001644YS02001647 CONDUIT    686.77     0  02:51      0.87    0.40    1.00
  YS02001745YS02001748 CONDUIT    632.63     0  02:43      1.48    0.24    0.94
  YS02001748YS02001751 CONDUIT    348.04     0  02:40      1.05    0.18    1.00
  YS02001751YS02001754 CONDUIT    309.00     0  03:01      0.88    0.15    1.00
  YS02001754YS02001757 CONDUIT    309.18     0  03:01      0.39    0.12    1.00
  YS02001882YS02001884 CONDUIT     29.64     0  02:39      0.09    0.03    1.00
  YS02001884YS02001887 CONDUIT     58.88     0  02:39      0.08    0.08    1.00
  YS02001890YS02001895 CONDUIT    453.63     0  03:01      0.58    0.21    1.00
  YS02001895YS02001898 CONDUIT    453.57     0  03:01      0.58    0.79    1.00
  YS02001898YS02001901 CONDUIT    453.81     0  03:01      0.58    0.29    1.00
  YS02001901YS02001904 CONDUIT    453.72     0  03:01      0.58    0.70    1.00
  YS02001904YS02001907 CONDUIT    453.77     0  03:01      0.58    0.16    1.00
  YS02001887YS02001890 CONDUIT    453.53     0  03:01      0.58    0.78    1.00
  YS02001652YS02001649 CONDUIT    373.95     0  03:01      0.50    0.19    1.00
  YS02001655YS02001652 CONDUIT    373.73     0  03:01      0.93    0.18    1.00
  YS02001658YS02001655 CONDUIT    402.03     0  02:38      1.21    0.17    1.00
  YS02001661YS02001658 CONDUIT    627.26     0  02:41      1.56    0.25    1.00
  YS02001664YS02001661 CONDUIT    698.18     0  02:57      1.60    0.22    0.71
  YSB1154YSB6556       CONDUIT     24.91     0  03:01      0.18    0.04    0.56
  YSB1174YSB1171       CONDUIT     18.78     0  03:01      0.07    0.03    0.68
  YSB1171HS02004479    CONDUIT     42.82     0  03:02      0.54    0.03    0.53
  HS02004881HS02006253 CONDUIT     79.15     0  03:01      1.60    0.02    0.30
  YS02001793JiankangQianchi CONDUIT    965.72     0  03:00     13.02    0.08    1.00
  YS02001757CaochengTiaoxuchi CONDUIT   1829.31     0  02:52      2.50    0.80    1.00
  WSF200WS02003060     CONDUIT    660.87     0  03:06      1.97    0.15    0.35
  1                    CONDUIT    930.58     0  02:44      3.26    0.32    0.39
  2                    CONDUIT    217.90     0  02:50      5.96    0.52    0.51
  3                    CONDUIT    261.57     0  02:51      8.42    0.42    0.45
  4                    CONDUIT      0.00     0  00:00      0.00    0.00    0.00
  CC-Pump-1            PUMP       200.00     0  02:30              1.00
  CC-Pump-2            PUMP       200.00     0  01:59              1.00
  JK-Pump-1            PUMP         0.00     0  00:00              0.00
  JK-Pump-2            PUMP       300.00     0  00:00              1.00
  XR-Pump-1            PUMP        95.00     0  00:00              1.00
  XR-Pump-2            PUMP        95.00     0  00:00              1.00
  XR-Pump-3            PUMP         0.00     0  00:00              0.00
  XR-Pump-4            PUMP        95.00     0  00:00              1.00
  
  
  ***************************
  Flow Classification Summary
  ***************************
  
  -------------------------------------------------------------------------------------
                      Adjusted    ---------- Fraction of Time in Flow Class ---------- 
                       /Actual         Up    Down  Sub   Sup   Up    Down  Norm  Inlet 
  Conduit               Length    Dry  Dry   Dry   Crit  Crit  Crit  Crit  Ltd   Ctrl  
  -------------------------------------------------------------------------------------
  WS02003066WSF200        1.00   0.06  0.00  0.00  0.00  0.94  0.00  0.00  0.60  0.00
  WS02006287WS02006284    1.00   0.04  0.01  0.00  0.58  0.37  0.00  0.00  0.65  0.00
  WS02006284WS02006280    1.00   0.04  0.00  0.00  0.00  0.00  0.00  0.96  0.00  0.00
  WS02006280WS02006229    1.00   0.04  0.00  0.00  0.00  0.00  0.00  0.96  0.00  0.00
  WS02006229WS02006228    1.00   0.00  0.00  0.00  0.99  0.00  0.00  0.01  0.00  0.00
  WS02006256WS02006235    1.00   0.00  0.00  0.00  1.00  0.00  0.00  0.00  0.00  0.00
  WS02006253WS02006251    1.00   0.03  0.01  0.00  0.96  0.00  0.00  0.00  0.00  0.00
  WS02006252WS02006251    1.00   0.07  0.00  0.00  0.00  0.00  0.93  0.00  0.00  0.00
  WS02006251WS02006249    1.00   0.00  0.00  0.00  1.00  0.00  0.00  0.00  0.25  0.00
  WS02006249WS02006248    1.00   0.00  0.02  0.00  0.90  0.00  0.08  0.00  0.00  0.00
  WS02006248WS02006247    1.00   0.02  0.00  0.00  0.98  0.00  0.00  0.00  0.13  0.00
  WS02006247WS02006245    1.00   0.02  0.00  0.00  0.98  0.00  0.00  0.00  0.00  0.00
  WS02006245WS02006243    1.00   0.01  0.00  0.00  0.95  0.00  0.00  0.03  0.01  0.00
  WS02006243WS02006242    1.00   0.01  0.00  0.00  0.99  0.00  0.00  0.00  0.21  0.00
  WS02006242WS02006240    1.00   0.00  0.00  0.00  1.00  0.00  0.00  0.00  0.00  0.00
  WS02006240WS02006239    1.00   0.00  0.00  0.00  0.97  0.00  0.00  0.03  0.01  0.00
  WS02006239WS02006238    1.00   0.00  0.00  0.00  1.00  0.00  0.00  0.00  0.02  0.00
  WS02006238WS02006235    1.00   0.00  0.00  0.00  1.00  0.00  0.00  0.00  0.00  0.00
  WS02006235WS02006234    1.00   0.00  0.00  0.00  0.96  0.00  0.04  0.00  0.00  0.00
  WS02006234WS02006232    1.00   0.00  0.00  0.00  1.00  0.00  0.00  0.00  0.11  0.00
  WS02006232WS02006231    1.00   0.00  0.00  0.00  0.99  0.00  0.00  0.00  0.00  0.00
  WS02006231WS02006230    1.00   0.00  0.00  0.00  0.54  0.00  0.45  0.00  0.00  0.00
  WS02006230WS02006229    1.00   0.00  0.00  0.00  0.99  0.00  0.00  0.01  0.01  0.00
  WS02006228WS02006109    1.00   0.00  0.00  0.00  1.00  0.00  0.00  0.00  0.00  0.00
  WS02006116WS02004401    1.00   0.02  0.00  0.00  0.98  0.00  0.00  0.00  0.00  0.00
  WS02006115WS02006116    1.00   0.02  0.00  0.00  0.97  0.00  0.00  0.01  0.00  0.00
  WS02006113WS02006111    1.00   0.02  0.00  0.00  0.00  0.98  0.00  0.00  0.10  0.00
  WS02006112WS02006115    1.00   0.02  0.00  0.00  0.97  0.00  0.00  0.00  0.00  0.00
  WS02006111WS02006112    1.00   0.02  0.00  0.00  0.98  0.00  0.00  0.00  0.90  0.00
  WS02006110WS02006113    1.00   0.01  0.01  0.00  0.98  0.00  0.00  0.00  0.00  0.00
  WS02006109WS02006110    1.00   0.00  0.01  0.00  0.98  0.00  0.01  0.00  0.00  0.00
  WS02004411WS02004412    1.00   0.04  0.00  0.00  0.96  0.00  0.00  0.00  0.00  0.00
  WS02004401WS02004402    1.00   0.02  0.00  0.00  0.98  0.00  0.00  0.00  0.00  0.00
  WS02004413WS02003067    1.00   0.04  0.01  0.00  0.00  0.00  0.95  0.00  0.00  0.00
  WS02004412WS02004413    1.00   0.04  0.00  0.00  0.96  0.00  0.00  0.00  0.03  0.00
  WS02004410WS02004411    1.00   0.04  0.00  0.00  0.96  0.00  0.00  0.00  0.04  0.00
  WS02004409WS02004410    1.00   0.04  0.00  0.00  0.96  0.00  0.00  0.00  0.03  0.00
  WS02004407WS02004409    1.00   0.04  0.00  0.00  0.96  0.00  0.00  0.00  0.89  0.00
  WS02004406WS02004407    1.00   0.00  0.04  0.00  0.96  0.00  0.00  0.00  0.00  0.00
  WS02004405WS02004406    1.00   0.00  0.00  0.00  1.00  0.00  0.00  0.00  0.01  0.00
  WS02004404WS02004405    1.00   0.00  0.00  0.00  1.00  0.00  0.00  0.00  0.00  0.00
  WS02004403WS02004404    1.00   0.00  0.03  0.00  0.97  0.00  0.00  0.00  0.01  0.00
  WS02004402WS02004403    1.00   0.02  0.00  0.00  0.98  0.00  0.00  0.00  0.00  0.00
  WS02004139WS02001211    1.00   0.00  0.00  0.00  1.00  0.00  0.00  0.00  0.00  0.00
  WS02004138WS02004139    1.00   0.00  0.00  0.00  0.99  0.01  0.00  0.00  1.00  0.00
  WS02003067WS02003066    1.00   0.05  0.01  0.00  0.94  0.00  0.00  0.00  0.00  0.00
  WS02001213WS02003059    1.00   0.00  0.00  0.00  0.99  0.00  0.00  0.00  0.00  0.00
  WS02001212WS02001213    1.00   0.00  0.00  0.00  0.91  0.00  0.08  0.00  0.00  0.00
  WS02001211WS02001212    1.00   0.00  0.00  0.00  1.00  0.00  0.00  0.00  0.00  0.00
  WS02003072WS02003073    1.00   0.00  0.00  0.00  0.00  0.00  0.00  1.00  0.00  0.00
  WS02003069WS02003072    1.00   0.00  0.00  0.00  0.99  0.01  0.00  0.00  0.22  0.00
  WS02003060WS02003069    1.00   0.00  0.00  0.00  0.98  0.02  0.00  0.00  0.07  0.00
  WS02003059WS02003060    1.00   0.00  0.00  0.00  1.00  0.00  0.00  0.00  0.01  0.00
  HS02004901HS02004770    1.00   0.04  0.00  0.00  0.96  0.00  0.00  0.00  0.00  0.00
  HS02004876HS02004881    1.00   0.02  0.00  0.00  0.89  0.08  0.00  0.00  0.00  0.00
  HS02004870HS02004876    1.00   0.00  0.00  0.00  0.99  0.00  0.00  0.00  0.95  0.00
  HS02004842HS02004848    1.00   0.00  0.04  0.00  0.96  0.00  0.00  0.00  0.58  0.00
  HS02004837HS02004842    1.00   0.00  0.00  0.00  0.99  0.01  0.00  0.00  0.11  0.00
  HS02004830HS02004837    1.00   0.00  0.00  0.00  1.00  0.00  0.00  0.00  0.99  0.00
  HS02004824HS02004830    1.00   0.00  0.00  0.00  1.00  0.00  0.00  0.00  0.00  0.00
  HS02004817HS02004824    1.00   0.00  0.00  0.00  1.00  0.00  0.00  0.00  1.00  0.00
  HS02004770HS02004777    1.00   0.00  0.04  0.00  0.96  0.00  0.00  0.00  0.03  0.00
  HS02004799HS02004480    1.00   0.00  0.02  0.00  0.95  0.00  0.02  0.00  0.00  0.00
  HS02004792HS02004799    1.00   0.00  0.00  0.00  0.99  0.01  0.00  0.00  0.98  0.00
  HS02004788HS02004792    1.00   0.00  0.00  0.00  0.99  0.01  0.00  0.00  0.98  0.00
  HS02004785HS02004788    1.00   0.00  0.00  0.00  1.00  0.00  0.00  0.00  0.00  0.00
  HS02004777HS02004785    1.00   0.00  0.00  0.00  1.00  0.00  0.00  0.00  0.14  0.00
  HS02004480HS02004478    1.00   0.04  0.00  0.00  0.65  0.00  0.00  0.30  0.00  0.00
  HS02004479HS02004480    1.00   0.03  0.00  0.00  0.97  0.00  0.00  0.00  0.12  0.00
  HS02004862HS02004870    1.00   0.00  0.00  0.00  1.00  0.00  0.00  0.00  0.05  0.00
  HS02004848HS02004852    1.00   0.04  0.00  0.00  0.96  0.00  0.00  0.00  0.61  0.00
  HS02004856HS02004862    1.00   0.00  0.05  0.00  0.95  0.00  0.00  0.00  0.80  0.00
  HS02004852HS02004856    1.00   0.04  0.00  0.00  0.96  0.00  0.00  0.00  0.85  0.00
  HS02004802HS02004478    1.00   0.04  0.00  0.00  0.96  0.00  0.00  0.00  0.03  0.00
  HS02004478WS02006287    1.00   0.05  0.00  0.00  0.72  0.23  0.00  0.00  0.66  0.00
  HS02004817HS02004807    1.00   0.00  0.04  0.00  0.96  0.00  0.00  0.00  0.01  0.00
  HS02004807HS02004802    1.00   0.04  0.00  0.00  0.96  0.00  0.00  0.00  0.00  0.00
  YS02001759YS02001757    1.00   0.00  0.00  0.00  1.00  0.00  0.00  0.00  0.16  0.00
  YS02001762YS02001759    1.00   0.00  0.00  0.00  1.00  0.00  0.00  0.00  0.04  0.00
  YS02001765YS02001762    1.00   0.00  0.00  0.00  1.00  0.00  0.00  0.00  0.16  0.00
  YS02001770YS02001767    1.00   0.00  0.00  0.00  1.00  0.00  0.00  0.00  0.00  0.00
  YS02001774YS02001770    1.00   0.00  0.04  0.00  0.96  0.00  0.00  0.00  0.04  0.00
  YS02001779YS02001774    1.00   0.00  0.00  0.00  1.00  0.00  0.00  0.00  0.21  0.00
  YS02001649YS02001757    1.00   0.00  0.00  0.00  1.00  0.00  0.00  0.00  0.17  0.00
  YS02001767YS02001765    1.00   0.00  0.00  0.00  1.00  0.00  0.00  0.00  0.00  0.00
  YS02006561YS02001783    1.00   0.05  0.00  0.00  0.44  0.51  0.00  0.00  0.56  0.00
  YS02001783YS02001784    1.00   0.00  0.06  0.00  0.94  0.00  0.00  0.00  0.01  0.00
  YS02001784YS02001785    1.00   0.00  0.00  0.00  1.00  0.00  0.00  0.00  0.20  0.00
  YS02001788YS02001790    1.00   0.00  0.00  0.00  0.53  0.47  0.00  0.00  0.50  0.00
  YS02001790YS02001791    1.00   0.00  0.00  0.00  0.50  0.50  0.00  0.00  0.37  0.00
  YS02001791YS02001793    1.00   0.00  0.00  0.00  0.51  0.49  0.00  0.00  0.02  0.00
  YS02001910YS02001907    1.00   0.00  0.00  0.00  0.98  0.00  0.00  0.02  0.13  0.00
  YS02001786YS02001788    1.00   0.00  0.00  0.00  0.51  0.49  0.00  0.00  0.00  0.00
  YS02001915YS02001910    1.00   0.00  0.00  0.00  0.99  0.01  0.00  0.00  0.18  0.00
  YS02001918YS02001915    1.00   0.00  0.01  0.00  0.98  0.01  0.00  0.00  0.58  0.00
  YS02001923YS02001920    1.00   0.00  0.00  0.00  1.00  0.00  0.00  0.00  0.85  0.00
  YS02001926YS02001923    1.00   0.00  0.03  0.00  0.14  0.00  0.83  0.00  0.00  0.00
  YS02001929YS02001926    1.00   0.00  0.04  0.00  0.96  0.00  0.00  0.00  0.78  0.00
  YS02001920YS02001918    1.00   0.00  0.01  0.00  0.99  0.00  0.00  0.00  0.00  0.00
  YS02001629YS02163301    1.00   0.05  0.00  0.00  0.95  0.00  0.00  0.00  0.00  0.00
  YS02001619YS02001622    1.00   0.04  0.00  0.00  0.96  0.00  0.00  0.00  0.00  0.00
  YS02001622YS02001625    1.00   0.04  0.00  0.00  0.96  0.00  0.00  0.00  0.07  0.00
  YS02001625YS02001629    1.00   0.04  0.01  0.00  0.93  0.00  0.01  0.00  0.00  0.00
  YS02163301YS02001633    1.00   0.00  0.05  0.00  0.95  0.00  0.00  0.00  0.00  0.00
  YS02163601YS02164001    1.00   0.00  0.03  0.00  0.97  0.00  0.00  0.00  0.00  0.00
  YS02164001YS02001641    1.00   0.01  0.03  0.00  0.97  0.00  0.00  0.00  0.06  0.00
  YS02001641YS02001644    1.00   0.00  0.01  0.00  0.99  0.00  0.00  0.00  0.00  0.00
  YS02001647YS02001649    1.00   0.00  0.05  0.00  0.95  0.00  0.00  0.00  0.01  0.00
  YS02006553YS02006556    1.00   0.01  0.00  0.00  0.99  0.00  0.00  0.00  0.03  0.00
  YS02006556YS02006558    1.00   0.00  0.00  0.00  1.00  0.00  0.00  0.00  0.00  0.00
  YSB6556YSB1171          1.00   0.03  0.01  0.00  0.96  0.00  0.00  0.00  0.00  0.00
  YS02001907YS02006553    1.00   0.00  0.02  0.00  0.98  0.00  0.00  0.00  0.00  0.00
  YS02006558YS02006561    1.00   0.05  0.00  0.00  0.19  0.76  0.00  0.00  0.48  0.00
  YS02001633YS02163601    1.00   0.00  0.01  0.00  0.99  0.00  0.00  0.00  0.16  0.00
  YS02001644YS02001647    1.00   0.00  0.05  0.00  0.95  0.00  0.00  0.00  0.00  0.00
  YS02001745YS02001748    1.00   0.00  0.00  0.00  0.89  0.01  0.00  0.10  0.05  0.00
  YS02001748YS02001751    1.00   0.00  0.00  0.00  0.98  0.02  0.00  0.00  0.15  0.00
  YS02001751YS02001754    1.00   0.00  0.00  0.00  0.94  0.00  0.00  0.06  0.02  0.00
  YS02001754YS02001757    1.00   0.00  0.00  0.00  0.99  0.01  0.00  0.00  0.20  0.00
  YS02001882YS02001884    1.00   0.05  0.00  0.00  0.95  0.00  0.00  0.00  0.00  0.00
  YS02001884YS02001887    1.00   0.03  0.01  0.00  0.96  0.00  0.00  0.00  0.00  0.00
  YS02001890YS02001895    1.00   0.00  0.05  0.00  0.95  0.00  0.00  0.00  0.00  0.00
  YS02001895YS02001898    1.00   0.05  0.00  0.00  0.94  0.00  0.01  0.00  0.00  0.00
  YS02001898YS02001901    1.00   0.05  0.00  0.00  0.95  0.00  0.00  0.00  0.02  0.00
  YS02001901YS02001904    1.00   0.05  0.00  0.00  0.95  0.00  0.00  0.00  0.00  0.00
  YS02001904YS02001907    1.00   0.00  0.05  0.00  0.95  0.00  0.00  0.00  0.00  0.00
  YS02001887YS02001890    1.00   0.00  0.00  0.00  0.97  0.00  0.02  0.00  0.00  0.00
  YS02001652YS02001649    1.00   0.00  0.00  0.00  1.00  0.00  0.00  0.00  0.18  0.00
  YS02001655YS02001652    1.00   0.00  0.00  0.00  0.94  0.00  0.00  0.06  0.02  0.00
  YS02001658YS02001655    1.00   0.00  0.04  0.00  0.93  0.02  0.00  0.00  0.11  0.00
  YS02001661YS02001658    1.00   0.04  0.00  0.00  0.89  0.06  0.00  0.00  0.07  0.00
  YS02001664YS02001661    1.00   0.04  0.00  0.00  0.86  0.10  0.00  0.00  0.22  0.00
  YSB1154YSB6556          1.00   0.04  0.00  0.00  0.96  0.00  0.00  0.00  0.02  0.00
  YSB1174YSB1171          1.00   0.03  0.01  0.00  0.96  0.00  0.00  0.00  0.00  0.00
  YSB1171HS02004479       1.00   0.03  0.00  0.00  0.97  0.00  0.00  0.00  0.11  0.00
  HS02004881HS02006253    1.00   0.03  0.00  0.00  0.87  0.01  0.00  0.10  0.70  0.00
  YS02001793JiankangQianchi    1.00   0.00  0.00  0.00  0.67  0.33  0.00  0.00  0.14  0.00
  YS02001757CaochengTiaoxuchi    1.00   0.00  0.07  0.00  0.92  0.01  0.00  0.00  0.00  0.00
  WSF200WS02003060        1.00   0.00  0.06  0.00  0.60  0.34  0.00  0.00  0.10  0.00
  1                       1.00   0.00  0.00  0.00  0.00  1.00  0.00  0.00  0.36  0.00
  2                       1.00   0.68  0.00  0.00  0.00  0.32  0.00  0.00  0.06  0.00
  3                       1.00   0.04  0.00  0.00  0.00  0.96  0.00  0.00  0.22  0.00
  4                       1.00   1.00  0.00  0.00  0.00  0.00  0.00  0.00  0.00  0.00
  
  
  *************************
  Conduit Surcharge Summary
  *************************
  
  ----------------------------------------------------------------------------
                                                           Hours        Hours 
                         --------- Hours Full --------   Above Full   Capacity
  Conduit                Both Ends  Upstream  Dnstream   Normal Flow   Limited
  ----------------------------------------------------------------------------
  WS02006229WS02006228        2.24      2.38      2.24      5.46         2.24
  WS02006256WS02006235        6.09      6.09      6.78      3.52         0.01
  WS02006253WS02006251        0.01      0.01      0.37      0.01         0.01
  WS02006252WS02006251        0.86      0.86      1.52      1.35         0.01
  WS02006251WS02006249        0.01      0.07      0.01      0.98         0.01
  WS02006249WS02006248        0.01      0.01      0.01      5.41         0.01
  WS02006248WS02006247        0.01      0.01      0.21      0.01         0.01
  WS02006247WS02006245        0.06      0.39      0.06      5.50         0.06
  WS02006245WS02006243        0.36      0.36      0.52      0.01         0.01
  WS02006243WS02006242        0.57      0.57      1.42      0.01         0.01
  WS02006242WS02006240        0.82      0.82      1.76      1.38         0.01
  WS02006240WS02006239        0.90      0.90      1.04      0.01         0.01
  WS02006239WS02006238        1.72      1.72      1.85      0.15         0.16
  WS02006238WS02006235        1.74      1.74      2.10      0.01         0.01
  WS02006235WS02006234        1.03      1.03      1.49      6.11         0.01
  WS02006234WS02006232        1.15      1.15      2.27      0.01         0.01
  WS02006232WS02006231        0.82      0.82      2.27      0.01         0.01
  WS02006231WS02006230        0.69      0.69      0.89      6.12         0.01
  WS02006230WS02006229        2.93      5.23      2.93      6.22         2.93
  WS02006228WS02006109        2.31      2.64      2.31      5.68         2.31
  WS02006112WS02006115        0.01      0.01      1.24      0.01         0.01
  WS02006111WS02006112        0.01      0.01      5.41      0.01         0.01
  WS02006110WS02006113        0.01      0.01      2.50      0.01         0.01
  WS02006109WS02006110        1.11      1.11      2.64      1.12         0.01
  WS02004406WS02004407        0.01      0.01      0.49      0.01         0.01
  WS02004405WS02004406        0.49      0.64      0.49      1.18         0.49
  WS02004404WS02004405        0.64      0.73      0.64      6.00         0.64
  WS02004403WS02004404        0.01      0.01      0.73      0.01         0.01
  WS02003072WS02003073        0.01      0.01      0.01      5.53         0.01
  HS02004480HS02004478        0.01      0.01      0.01      0.25         0.01
  YS02001759YS02001757        5.66      5.66      5.74      0.01         0.01
  YS02001762YS02001759        5.64      5.64      5.66      0.01         0.01
  YS02001765YS02001762        5.61      5.61      5.64      0.01         0.01
  YS02001770YS02001767        5.58      5.58      5.58      0.37         0.87
  YS02001774YS02001770        5.56      5.56      5.63      0.01         0.01
  YS02001779YS02001774        5.39      5.39      5.63      0.01         0.01
  YS02001649YS02001757        5.64      5.64      5.74      0.01         0.01
  YS02001767YS02001765        5.58      5.58      5.61      0.01         0.01
  YS02006561YS02001783        0.66      0.66      1.28      0.01         0.01
  YS02001783YS02001784        1.28      1.28      1.33      1.09         1.01
  YS02001784YS02001785        1.28      1.33      1.28      2.07         1.28
  YS02001788YS02001790        1.27      1.27      2.66      0.01         0.01
  YS02001790YS02001791        2.66      2.66      2.79      0.49         0.49
  YS02001791YS02001793        2.79      2.79      3.05      0.01         0.01
  YS02001910YS02001907        1.00      1.00      1.49      0.01         0.01
  YS02001786YS02001788        1.27      1.28      1.27      1.69         1.27
  YS02001915YS02001910        0.78      0.78      1.00      0.01         0.01
  YS02001918YS02001915        0.53      0.53      0.78      0.01         0.01
  YS02001923YS02001920        0.29      0.29      0.56      0.01         0.01
  YS02001920YS02001918        0.53      0.53      0.56      0.01         0.01
  YS02001629YS02163301        5.56      5.56      5.58      0.01         0.01
  YS02001619YS02001622        5.20      5.20      5.25      0.01         0.01
  YS02001622YS02001625        5.25      5.25      5.43      0.01         0.01
  YS02001625YS02001629        5.21      5.21      5.43      0.01         0.01
  YS02163301YS02001633        5.58      5.58      5.61      0.01         0.01
  YS02163601YS02164001        5.61      5.61      5.64      0.01         0.01
  YS02164001YS02001641        5.61      5.61      5.62      0.01         0.02
  YS02001641YS02001644        5.62      5.62      5.62      1.21         1.33
  YS02001647YS02001649        5.41      5.41      5.64      0.01         0.01
  YS02006553YS02006556        1.20      1.20      1.55      0.01         0.01
  YS02006556YS02006558        1.37      1.37      1.63      0.01         0.01
  YS02001907YS02006553        2.09      2.09      2.30      0.01         0.01
  YS02006558YS02006561        0.89      1.17      0.89      1.94         0.89
  YS02001633YS02163601        5.60      5.60      5.64      0.01         0.01
  YS02001644YS02001647        5.41      5.41      5.62      0.01         0.01
  YS02001745YS02001748        0.01      0.01      5.03      0.01         0.01
  YS02001748YS02001751        5.08      5.08      5.16      0.01         0.01
  YS02001751YS02001754        5.16      5.16      5.39      0.01         0.01
  YS02001754YS02001757        5.42      5.42      5.74      0.01         0.01
  YS02001882YS02001884        0.79      0.79      0.83      0.01         0.01
  YS02001884YS02001887        0.89      0.89      0.92      0.01         0.01
  YS02001890YS02001895        0.76      0.76      1.02      0.01         0.01
  YS02001895YS02001898        0.75      0.75      0.76      0.01         0.01
  YS02001898YS02001901        0.78      0.78      0.88      0.01         0.01
  YS02001901YS02001904        0.86      0.86      0.88      0.01         0.01
  YS02001904YS02001907        0.86      0.86      1.58      0.01         0.01
  YS02001887YS02001890        0.95      0.95      0.99      0.01         0.01
  YS02001652YS02001649        5.42      5.42      5.64      0.01         0.01
  YS02001655YS02001652        5.20      5.20      5.41      0.01         0.01
  YS02001658YS02001655        5.06      5.06      5.20      0.01         0.01
  YS02001661YS02001658        0.21      0.21      5.06      0.01         0.01
  YS02001664YS02001661        0.01      0.01      1.20      0.01         0.01
  YS02001793JiankangQianchi        2.99      2.99      3.99      0.01         0.01
  YS02001757CaochengTiaoxuchi        4.84      4.84      5.74      0.01         0.01
  
  
  ***************
  Pumping Summary
  ***************
  
  ---------------------------------------------------------------------------------------------------------
                                                  Min       Avg       Max     Total     Power    % Time Off
                        Percent   Number of      Flow      Flow      Flow    Volume     Usage    Pump Curve
  Pump                 Utilized   Start-Ups       LPS       LPS       LPS  10^6 ltr     Kw-hr    Low   High
  ---------------------------------------------------------------------------------------------------------
  CC-Pump-1               43.90           6      0.00    126.32    200.00     1.573      2.48    0.0    8.8
  CC-Pump-2               71.56           3      0.00    163.50    200.00     3.281      4.97    0.0   11.3
  JK-Pump-1                0.00           0      0.00      0.00      0.00     0.000      0.00    0.0    0.0
  JK-Pump-2              100.00           1      0.00    245.77    300.00     5.639     51.13    0.0    0.0
  XR-Pump-1               97.86           5      0.00     81.72     95.00     2.337     19.77    0.0    0.0
  XR-Pump-2              100.00           3      0.00     87.01     95.00     2.451     19.21    0.0    0.0
  XR-Pump-3                0.00           0      0.00      0.00      0.00     0.000      0.00    0.0    0.0
  XR-Pump-4               74.46           8      0.00     70.78     95.00     1.482     13.80    0.0    0.0
  

  Analysis begun on:  Thu Jan  6 16:08:39 2022
  Analysis ended on:  Thu Jan  6 16:08:43 2022
  Total elapsed time: 00:00:04