
  EPA STORM WATER MANAGEMENT MODEL - VERSION 5.1 (Build 5.3.0.dev0)
  --------------------------------------------------------------

  WARNING 04: minimum elevation drop used for Conduit WS02004404WS02004405
  WARNING 03: negative offset ignored for Link YS02001904YS02001907
  
  *********************************************************
  NOTE: The summary statistics displayed in this report are
  based on results found at every computational time step,  
  not just on results from each reporting time step.
  *********************************************************
  
  ****************
  Analysis Options
  ****************
  Flow Units ............... LPS
  Process Models:
    Rainfall/Runoff ........ YES
    RDII ................... NO
    Snowmelt ............... NO
    Groundwater ............ NO
    Flow Routing ........... YES
    Ponding Allowed ........ NO
    Water Quality .......... NO
  Infiltration Method ...... HORTON
  Flow Routing Method ...... DYNWAVE
  Surcharge Method ......... EXTRAN
  Starting Date ............ 08/28/2015 08:00:00
  Ending Date .............. 08/28/2015 15:50:00
  Antecedent Dry Days ...... 8.0
  Report Time Step ......... 00:01:00
  Wet Time Step ............ 00:01:00
  Dry Time Step ............ 00:01:00
  Routing Time Step ........ 5.00 sec
  Variable Time Step ....... YES
  Maximum Trials ........... 8
  Number of Threads ........ 4
  Head Tolerance ........... 0.001500 m
  
  
  **************************        Volume         Depth
  Runoff Quantity Continuity     hectare-m            mm
  **************************     ---------       -------
  Total Precipitation ......         6.144        13.452
  Evaporation Loss .........         0.000         0.000
  Infiltration Loss ........         1.572         3.442
  Surface Runoff ...........         3.480         7.619
  Final Storage ............         1.093         2.393
  Continuity Error (%) .....        -0.016
  
  
  **************************        Volume        Volume
  Flow Routing Continuity        hectare-m      10^6 ltr
  **************************     ---------     ---------
  Dry Weather Inflow .......         0.616         6.165
  Wet Weather Inflow .......         3.479        34.789
  Groundwater Inflow .......         0.000         0.000
  RDII Inflow ..............         0.000         0.000
  External Inflow ..........         0.102         1.024
  External Outflow .........         1.874        18.738
  Flooding Loss ............         1.757        17.565
  Evaporation Loss .........         0.000         0.000
  Exfiltration Loss ........         0.000         0.000
  Initial Stored Volume ....         0.076         0.761
  Final Stored Volume ......         0.657         6.568
  Continuity Error (%) .....        -0.311
  
  
  *************************
  Highest Continuity Errors
  *************************
  Node HS02004842 (15.27%)
  Node YS02001884 (11.37%)
  Node YSB1171 (2.79%)
  Node HS02004817 (2.78%)
  Node HS02004901 (2.06%)
  
  
  ***************************
  Time-Step Critical Elements
  ***************************
  Link WS02006252WS02006251 (50.20%)
  Link 3 (40.70%)
  Link WS02006238WS02006235 (2.25%)
  Link WS02006280WS02006229 (1.94%)
  
  
  ********************************
  Highest Flow Instability Indexes
  ********************************
  Link YS02163601YS02164001 (42)
  Link YS02001619YS02001622 (42)
  Link YS02163301YS02001633 (41)
  Link YS02001629YS02163301 (41)
  Link YS02164001YS02001641 (40)
  
  
  *************************
  Routing Time Step Summary
  *************************
  Minimum Time Step           :     0.50 sec
  Average Time Step           :     0.81 sec
  Maximum Time Step           :     5.00 sec
  Percent in Steady State     :    -0.00
  Average Iterations per Step :     4.67
  Percent Not Converging      :    21.22
  
  
  ***************************
  Subcatchment Runoff Summary
  ***************************
  
  ------------------------------------------------------------------------------------------------------------------------------
                            Total      Total      Total      Total     Imperv       Perv      Total       Total     Peak  Runoff
                           Precip      Runon       Evap      Infil     Runoff     Runoff     Runoff      Runoff   Runoff   Coeff
  Subcatchment                 mm         mm         mm         mm         mm         mm         mm    10^6 ltr      LPS
  ------------------------------------------------------------------------------------------------------------------------------
  sub0                      13.45       0.00       0.00       0.89      11.25       0.05      11.30        0.01     3.67   0.840
  sub1                      13.45       0.00       0.00       1.45      10.71       0.03      10.74        0.07    24.31   0.799
  sub2                      13.45       0.00       0.00       4.95       7.56       0.02       7.58        0.07    22.93   0.564
  sub3                      13.45       0.00       0.00       4.96       7.52       0.02       7.54        0.17    51.30   0.560
  sub4                      13.45       0.00       0.00       1.46      10.54       0.02      10.56        0.22    61.94   0.785
  sub5                      13.45       0.00       0.00       0.91      11.19       0.03      11.22        0.13    43.21   0.834
  sub7                      13.45       0.00       0.00       1.17      10.98       0.04      11.03        0.04    13.69   0.820
  sub8                      13.45       0.00       0.00       1.17      10.97       0.04      11.01        0.07    25.15   0.819
  sub9                      13.45       0.00       0.00       1.17      10.97       0.04      11.01        0.05    18.81   0.818
  sub10                     13.45       0.00       0.00       1.04      11.08       0.03      11.11        0.12    42.29   0.826
  sub11                     13.45       0.00       0.00       1.04      11.10       0.04      11.14        0.13    46.68   0.828
  sub12                     13.45       0.00       0.00       1.69      10.51       0.06      10.58        0.09    35.94   0.786
  sub14                     13.45       0.00       0.00       1.17      10.97       0.04      11.01        0.10    37.02   0.818
  sub15                     13.45       0.00       0.00       4.00       8.43       0.04       8.47        0.15    51.03   0.630
  sub16                     13.45       0.00       0.00       4.38       8.09       0.06       8.15        0.09    32.58   0.606
  sub17                     13.45       0.00       0.00       4.25       8.21       0.06       8.27        0.07    26.73   0.615
  sub22                     13.45       0.00       0.00       5.74       6.88       0.04       6.92        0.44   159.06   0.514
  sub23                     13.45       0.00       0.00       4.93       7.60       0.05       7.65        0.36   133.95   0.569
  sub60                     13.45       0.00       0.00       1.61       8.73       0.00       8.74        2.65   387.96   0.649
  sub61                     13.45       0.00       0.00       2.28       8.88       0.00       8.88        2.74   483.52   0.660
  sub62                     13.45       0.00       0.00       1.07       9.65       0.00       9.66        2.97   496.42   0.718
  sub63                     13.45       0.00       0.00       3.90       7.77       0.00       7.77        2.35   446.68   0.578
  sub64                     13.45       0.00       0.00       2.01       8.38       0.00       8.38        2.55   368.35   0.623
  sub65                     13.45       0.00       0.00       1.75       8.52       0.00       8.52        2.62   373.60   0.634
  sub66                     13.45       0.00       0.00       3.90       7.19       0.00       7.19        2.21   337.96   0.535
  sub67                     13.45       0.00       0.00       1.07      10.19       0.01      10.19        3.15   622.58   0.758
  sub68                     13.45       0.00       0.00       1.88       9.34       0.01       9.34        2.87   531.38   0.694
  sub69                     13.45       0.00       0.00       2.01       9.68       0.01       9.69        2.26   503.32   0.720
  sub70                     13.45       9.89       0.00       7.67      12.93       0.26      13.20        3.02   423.72   0.565
  sub71                     13.45       0.00       0.00       1.07       9.40       0.00       9.40        2.22   347.35   0.699
  sub72                     13.45       0.00       0.00       0.94       7.49       0.00       7.50        1.53   163.23   0.557
  sub73                     13.45      12.84       0.00       8.67      14.26       0.27      14.53        3.41   375.92   0.552
  sub74                     13.45       0.00       0.00      10.09       2.88       0.00       2.89        1.15   273.25   0.215
  
  
  ******************
  Node Depth Summary
  ******************
  
  ---------------------------------------------------------------------------------
                                 Average  Maximum  Maximum  Time of Max    Reported
                                   Depth    Depth      HGL   Occurrence   Max Depth
  Node                 Type       Meters   Meters   Meters  days hr:min      Meters
  ---------------------------------------------------------------------------------
  WS02001211           JUNCTION     0.62     0.71     5.55     0  03:31        0.71
  WS02001212           JUNCTION     0.36     0.44     5.50     0  03:31        0.44
  WS02001213           JUNCTION     0.60     0.71     5.47     0  03:11        0.71
  WS02003069           JUNCTION     0.44     0.58     5.17     0  03:10        0.58
  WS02003072           JUNCTION     0.50     0.64     5.01     0  03:10        0.64
  WS02003073           JUNCTION     0.30     0.39     4.46     0  03:11        0.39
  WS02003060           JUNCTION     0.39     0.51     5.45     0  03:09        0.51
  WS02003066           JUNCTION     0.25     0.35     5.91     0  03:05        0.35
  WS02003059           JUNCTION     0.66     0.77     5.46     0  03:11        0.77
  WS02003067           JUNCTION     0.60     0.78     6.10     0  03:05        0.78
  WS02004401           JUNCTION     0.72     1.10     7.10     0  03:03        1.10
  WS02004402           JUNCTION     0.75     1.11     7.07     0  03:03        1.10
  WS02004403           JUNCTION     0.76     1.10     7.03     0  03:03        1.09
  WS02004404           JUNCTION     0.84     1.15     7.00     0  03:03        1.15
  WS02004406           JUNCTION     0.84     1.10     6.93     0  03:03        1.10
  WS02004409           JUNCTION     0.53     0.85     6.62     0  03:04        0.85
  WS02004410           JUNCTION     0.55     0.85     6.57     0  03:04        0.85
  WS02004411           JUNCTION     0.56     0.84     6.52     0  03:04        0.84
  WS02004412           JUNCTION     0.57     0.83     6.47     0  03:05        0.83
  WS02004413           JUNCTION     0.73     0.97     6.44     0  03:05        0.97
  WS02004405           JUNCTION     0.83     1.13     6.98     0  03:03        1.13
  WS02006109           JUNCTION     0.80     1.26     7.88     0  03:02        1.24
  WS02006110           JUNCTION     0.78     1.10     7.69     0  03:02        1.10
  WS02006111           JUNCTION     0.24     0.59     7.30     0  03:03        0.59
  WS02006112           JUNCTION     0.89     1.38     7.26     0  03:03        1.37
  WS02006113           JUNCTION     0.36     0.60     7.50     0  03:03        0.60
  WS02006115           JUNCTION     0.61     1.05     7.19     0  03:03        1.05
  WS02006116           JUNCTION     0.69     1.11     7.15     0  03:03        1.11
  WS02006230           JUNCTION     0.79     1.38     8.13     0  03:02        1.37
  WS02006231           JUNCTION     0.54     1.01     8.14     0  03:02        0.99
  WS02006232           JUNCTION     0.67     1.11     8.15     0  03:02        1.10
  WS02006234           JUNCTION     0.59     1.00     8.16     0  03:02        0.99
  WS02006235           JUNCTION     0.63     1.01     8.17     0  03:02        0.99
  WS02006238           JUNCTION     0.65     1.02     8.17     0  03:02        1.01
  WS02006240           JUNCTION     0.55     0.91     8.21     0  03:02        0.90
  WS02006242           JUNCTION     0.60     0.96     8.23     0  03:02        0.96
  WS02006243           JUNCTION     0.48     0.82     8.24     0  03:02        0.82
  WS02006245           JUNCTION     0.46     0.78     8.26     0  03:02        0.77
  WS02006247           JUNCTION     0.47     0.77     8.27     0  03:02        0.77
  WS02006248           JUNCTION     0.41     0.70     8.29     0  03:02        0.70
  WS02006249           JUNCTION     0.44     0.70     8.30     0  03:02        0.70
  WS02006239           JUNCTION     0.61     0.98     8.19     0  03:03        0.97
  WS02006251           JUNCTION     0.44     0.79     8.46     0  03:02        0.79
  WS02006252           JUNCTION     0.38     0.59     8.84     0  03:11        0.59
  WS02006253           JUNCTION     0.46     0.83     8.47     0  03:02        0.82
  WS02006256           JUNCTION     1.07     1.16     8.10     0  03:02        1.16
  WS02004138           JUNCTION     0.13     0.17     7.42     0  07:13        0.17
  WS02004407           JUNCTION     0.24     0.36     6.68     0  03:04        0.36
  WS02006228           JUNCTION     0.81     1.37     8.02     0  03:02        1.36
  WS02006229           JUNCTION     0.80     1.41     8.11     0  03:02        1.40
  WS02006280           JUNCTION     0.08     0.24     8.52     0  03:02        0.24
  WS02006284           JUNCTION     0.38     0.63     9.02     0  03:02        0.62
  WS02006287           JUNCTION     0.11     0.37     9.32     0  03:02        0.37
  WSF200               JUNCTION     0.24     0.37     5.61     0  03:05        0.37
  HS02004901           JUNCTION     0.14     0.35    10.17     0  03:01        0.35
  HS02004881           JUNCTION     0.01     0.05     9.08     0  03:01        0.05
  HS02004876           JUNCTION     0.05     0.15     9.18     0  03:01        0.15
  HS02004870           JUNCTION     0.02     0.09     9.37     0  03:01        0.09
  HS02004862           JUNCTION     0.02     0.10     9.49     0  03:01        0.10
  HS02004856           JUNCTION     0.08     0.15     9.57     0  03:01        0.15
  HS02004852           JUNCTION     0.01     0.07     9.58     0  03:02        0.07
  HS02004848           JUNCTION     0.01     0.06     9.67     0  03:01        0.06
  HS02004842           JUNCTION     0.33     0.40     9.67     0  03:01        0.40
  HS02004837           JUNCTION     0.03     0.09     9.67     0  03:01        0.09
  HS02004830           JUNCTION     0.04     0.10     9.57     0  03:01        0.10
  HS02004824           JUNCTION     0.03     0.11     9.51     0  03:02        0.11
  HS02004817           JUNCTION     0.45     0.67     9.52     0  03:02        0.67
  HS02004807           JUNCTION     0.14     0.34     9.51     0  03:02        0.34
  HS02004802           JUNCTION     0.17     0.38     9.50     0  03:02        0.38
  HS02004799           JUNCTION     0.13     0.43     9.65     0  03:01        0.43
  HS02004792           JUNCTION     0.04     0.20     9.72     0  03:01        0.19
  HS02004788           JUNCTION     0.03     0.14    10.04     0  03:02        0.14
  HS02004785           JUNCTION     0.06     0.23    10.13     0  03:02        0.23
  HS02004777           JUNCTION     0.16     0.37    10.17     0  03:01        0.37
  HS02004770           JUNCTION     0.13     0.34    10.17     0  03:01        0.34
  HS02004480           JUNCTION     0.09     0.35     9.59     0  03:01        0.35
  HS02004479           JUNCTION     0.13     0.39     9.60     0  03:01        0.39
  HS02004478           JUNCTION     0.07     0.26     9.48     0  03:01        0.26
  YS02001745           JUNCTION     0.69     0.88     8.39     0  03:38        0.88
  YS02001748           JUNCTION     1.08     2.27     9.35     0  02:46        1.46
  YS02001751           JUNCTION     1.26     2.20     9.08     0  02:48        1.64
  YS02001754           JUNCTION     1.51     2.20     8.81     0  02:47        1.86
  YS02001762           JUNCTION     1.71     2.11     8.51     0  02:48        2.04
  YS02001765           JUNCTION     1.66     2.05     8.50     0  02:48        1.97
  YS02001767           JUNCTION     1.63     1.99     8.48     0  02:48        1.93
  YS02001770           JUNCTION     1.62     1.95     8.44     0  02:47        1.91
  YS02001774           JUNCTION     1.69     2.01     8.43     0  02:48        1.97
  YS02001779           JUNCTION     1.44     1.68     8.37     0  02:47        1.68
  YS02001882           JUNCTION     0.59     1.65     8.37     0  02:50        1.62
  YS02001884           JUNCTION     0.69     1.75     8.36     0  02:50        1.72
  YS02001759           JUNCTION     1.75     2.14     8.50     0  02:48        2.09
  YS02001887           JUNCTION     0.76     1.81     8.35     0  02:50        1.80
  YS02001890           JUNCTION     0.79     1.81     8.32     0  02:50        1.81
  YS02001898           JUNCTION     0.56     1.57     8.31     0  02:51        1.56
  YS02001901           JUNCTION     0.68     1.68     8.29     0  02:51        1.67
  YS02001904           JUNCTION     0.66     1.64     8.27     0  02:51        1.63
  YS02001907           JUNCTION     0.98     1.96     8.25     0  02:51        1.96
  YS02001910           JUNCTION     0.78     1.79     8.30     0  02:52        1.78
  YS02001915           JUNCTION     0.58     1.62     8.34     0  02:52        1.59
  YS02001918           JUNCTION     0.32     1.42     8.48     0  02:50        1.27
  YS02001619           JUNCTION     1.23     1.61     8.54     0  02:43        1.51
  YS02001629           JUNCTION     1.58     1.85     8.40     0  02:44        1.85
  YS02001641           JUNCTION     1.68     1.97     8.41     0  02:47        1.93
  YS02001644           JUNCTION     1.68     1.92     8.35     0  02:47        1.92
  YS02001652           JUNCTION     1.53     2.16     8.76     0  02:54        2.05
  YS02001655           JUNCTION     1.29     2.20     9.05     0  02:40        1.86
  YS02001920           JUNCTION     0.42     1.41     8.42     0  02:52        1.34
  YS02001923           JUNCTION     0.25     1.18     8.44     0  02:52        1.11
  YS02001926           JUNCTION     0.30     0.99     8.43     0  02:52        0.95
  YS02001929           JUNCTION     0.17     0.76     8.46     0  02:52        0.74
  YS02001658           JUNCTION     1.02     2.30     9.44     0  02:46        1.50
  YS02001661           JUNCTION     0.80     2.46     9.86     0  02:54        1.39
  YS02001664           JUNCTION     0.36     0.57     8.49     0  02:54        0.56
  YS02001622           JUNCTION     1.25     1.62     8.52     0  02:43        1.52
  YS02001633           JUNCTION     1.67     2.00     8.45     0  02:47        1.94
  YS02001649           JUNCTION     1.72     2.05     8.44     0  02:48        2.05
  YS02001757           JUNCTION     1.84     2.21     8.47     0  02:47        2.16
  YS02001895           JUNCTION     0.56     1.57     8.32     0  02:51        1.56
  YS02001625           JUNCTION     1.53     1.78     8.38     0  02:44        1.78
  YS02163301           JUNCTION     1.61     1.92     8.44     0  02:46        1.89
  YS02163601           JUNCTION     1.72     2.06     8.46     0  02:47        1.98
  YS02164001           JUNCTION     1.66     1.99     8.44     0  02:47        1.91
  YS02001647           JUNCTION     1.51     1.81     8.42     0  02:48        1.79
  YSB1154              JUNCTION     0.27     0.54     9.60     0  03:01        0.54
  YSB6556              JUNCTION     0.16     0.43     9.60     0  03:02        0.43
  YSB1174              JUNCTION     0.22     0.49     9.60     0  03:01        0.49
  YSB1171              JUNCTION     0.42     0.69     9.60     0  03:01        0.69
  YS02006553           JUNCTION     0.98     1.97     8.25     0  02:59        1.96
  YS02006561           JUNCTION     0.35     1.13     7.79     0  02:50        1.08
  YS02006556           JUNCTION     0.95     1.93     8.24     0  03:00        1.93
  YS02006558           JUNCTION     0.99     1.97     8.24     0  03:00        1.97
  YS02001783           JUNCTION     0.60     2.40     8.54     0  02:43        1.47
  YS02001784           JUNCTION     0.62     1.95     8.02     0  02:43        1.41
  YS02001786           JUNCTION     0.57     1.98     8.01     0  02:43        1.26
  YS02001788           JUNCTION     0.51     2.28     8.26     0  02:43        1.12
  YS02001790           JUNCTION     0.66     1.96     7.60     0  02:42        1.29
  YS02001791           JUNCTION     0.67     1.82     7.29     0  02:43        1.27
  YS02001793           JUNCTION     0.97     2.10     6.94     0  02:43        1.80
  WS02004139           JUNCTION     0.56     0.65     5.56     0  03:30        0.65
  WSC                  OUTFALL      0.30     0.39     1.06     0  03:11        0.39
  3                    OUTFALL      0.10     0.16     6.16     0  03:02        0.16
  4                    OUTFALL      0.04     0.20     7.20     0  03:02        0.20
  5                    OUTFALL      0.00     0.00     5.00     0  00:00        0.00
  JK-storage           STORAGE      3.56     5.80     6.60     0  02:42        5.80
  CC-storage           STORAGE      1.06     1.38     8.38     0  04:05        1.38
  XR-storage           STORAGE      7.50     7.72     5.72     0  02:20        7.72
  
  
  *******************
  Node Inflow Summary
  *******************
  
  -------------------------------------------------------------------------------------------------
                                  Maximum  Maximum                  Lateral       Total        Flow
                                  Lateral    Total  Time of Max      Inflow      Inflow     Balance
                                   Inflow   Inflow   Occurrence      Volume      Volume       Error
  Node                 Type           LPS      LPS  days hr:min    10^6 ltr    10^6 ltr     Percent
  -------------------------------------------------------------------------------------------------
  WS02001211           JUNCTION      7.35   292.97     0  07:20       0.207         5.5       0.679
  WS02001212           JUNCTION      0.00   293.47     0  07:20           0        5.47       0.348
  WS02001213           JUNCTION      0.00   294.14     0  07:20           0        5.45       0.452
  WS02003069           JUNCTION      0.32   941.49     0  03:09     0.00902        14.2       0.219
  WS02003072           JUNCTION      0.00   941.44     0  03:10           0        14.2       0.266
  WS02003073           JUNCTION      1.82   943.20     0  03:11      0.0514        14.2       0.301
  WS02003060           JUNCTION     16.53   941.26     0  03:08       0.466        14.2       0.208
  WS02003066           JUNCTION      0.00   796.17     0  03:05           0        8.39       0.054
  WS02003059           JUNCTION      0.00   295.56     0  07:21           0        5.43       0.726
  WS02003067           JUNCTION      0.00   795.65     0  03:05           0         8.4       0.113
  WS02004401           JUNCTION      0.00   799.42     0  03:03           0        8.63       0.254
  WS02004402           JUNCTION      0.00   799.51     0  03:03           0        8.61       0.239
  WS02004403           JUNCTION      0.00   799.58     0  03:03           0        8.59       0.217
  WS02004404           JUNCTION      0.16   799.81     0  03:03     0.00457        8.58       0.163
  WS02004406           JUNCTION      0.00   799.90     0  03:03           0        8.54       0.397
  WS02004409           JUNCTION      0.00   799.73     0  03:04           0         8.5       0.198
  WS02004410           JUNCTION      0.00   797.95     0  03:04           0        8.49       0.222
  WS02004411           JUNCTION      0.00   796.71     0  03:04           0        8.47       0.227
  WS02004412           JUNCTION      0.00   795.84     0  03:04           0        8.45       0.245
  WS02004413           JUNCTION      0.00   795.56     0  03:05           0        8.43       0.361
  WS02004405           JUNCTION      0.04   799.86     0  03:03     0.00107        8.56       0.243
  WS02006109           JUNCTION      1.23   785.26     0  03:02      0.0347        8.69       0.249
  WS02006110           JUNCTION      0.00   785.22     0  03:02           0        8.67       0.234
  WS02006111           JUNCTION      0.00   781.90     0  03:03           0        8.64       0.054
  WS02006112           JUNCTION     26.73   799.01     0  03:03      0.0709         8.7       0.343
  WS02006113           JUNCTION      0.00   785.18     0  03:02           0        8.65       0.114
  WS02006115           JUNCTION      0.00   799.02     0  03:03           0        8.67       0.238
  WS02006116           JUNCTION      0.00   799.27     0  03:03           0        8.65       0.226
  WS02006230           JUNCTION     10.28   397.40     0  06:31        0.29         6.6       0.196
  WS02006231           JUNCTION      0.00   387.41     0  06:12           0        6.32       0.200
  WS02006232           JUNCTION      0.00   387.56     0  06:12           0        6.34       0.261
  WS02006234           JUNCTION      0.00   388.51     0  06:12           0        6.35       0.138
  WS02006235           JUNCTION      0.00   389.04     0  05:51           0         6.4       0.170
  WS02006238           JUNCTION      0.00   306.84     0  06:12           0         4.4       0.178
  WS02006240           JUNCTION      0.00   328.32     0  02:08           0         4.4       0.277
  WS02006242           JUNCTION      0.00   343.04     0  02:08           0        4.41       0.334
  WS02006243           JUNCTION      0.00   356.20     0  02:07           0         4.4       0.022
  WS02006245           JUNCTION      0.00   364.78     0  02:07           0        4.41       0.232
  WS02006247           JUNCTION      0.00   371.12     0  02:07           0        4.41       0.157
  WS02006248           JUNCTION      0.00   376.95     0  02:07           0        4.42       0.074
  WS02006249           JUNCTION      0.00   532.47     0  03:02           0         5.3       0.217
  WS02006239           JUNCTION      0.00   308.97     0  02:08           0         4.4       0.273
  WS02006251           JUNCTION      0.08   534.03     0  03:01     0.00217        5.33       0.164
  WS02006252           JUNCTION      0.00   400.00     0  02:06           0         4.9       0.009
  WS02006253           JUNCTION      3.67   134.78     0  03:01     0.00915       0.431       0.903
  WS02006256           JUNCTION      0.00   347.58     0  03:02           0        5.74       0.052
  WS02004138           JUNCTION      0.00   285.00     0  07:10           0        5.33       0.087
  WS02004407           JUNCTION      0.00   799.97     0  03:03           0        8.51       0.089
  WS02006228           JUNCTION      0.00   784.01     0  03:02           0        8.67       0.179
  WS02006229           JUNCTION      0.00   784.12     0  03:02           0        8.68       0.140
  WS02006280           JUNCTION      0.00   611.96     0  03:02           0         2.1       0.003
  WS02006284           JUNCTION      0.10   611.07     0  03:02      0.0027         2.1       0.059
  WS02006287           JUNCTION      0.00   609.84     0  03:02           0         2.1       0.034
  WSF200               JUNCTION      0.00   796.30     0  03:05           0        8.38       0.050
  HS02004901           JUNCTION     32.58    32.58     0  03:01      0.0853      0.0856       2.107
  HS02004881           JUNCTION     13.69   131.68     0  03:01      0.0372       0.403       0.063
  HS02004876           JUNCTION     24.31   119.37     0  03:01      0.0714       0.367       0.153
  HS02004870           JUNCTION     25.15    96.63     0  03:01      0.0703       0.295       0.038
  HS02004862           JUNCTION     23.13    73.48     0  03:01      0.0763       0.225       0.080
  HS02004856           JUNCTION     18.81    51.88     0  03:01      0.0529        0.15       0.973
  HS02004852           JUNCTION      0.00    35.11     0  03:01           0      0.0975       0.061
  HS02004848           JUNCTION     51.30    51.30     0  03:01        0.17        0.17       0.030
  HS02004842           JUNCTION      0.00    15.11     0  03:01           0      0.0851      18.025
  HS02004837           JUNCTION     48.64    62.30     0  03:01       0.302       0.374       0.218
  HS02004830           JUNCTION      0.15    61.39     0  03:01     0.00423       0.364       0.341
  HS02004824           JUNCTION     61.99   121.76     0  03:01       0.222       0.584       0.093
  HS02004817           JUNCTION      0.60   117.99     0  03:02      0.0169       0.601       2.855
  HS02004807           JUNCTION     46.68   158.05     0  03:01       0.129       0.713       0.602
  HS02004802           JUNCTION      0.00   156.92     0  03:03           0       0.709       0.571
  HS02004799           JUNCTION     37.02   389.11     0  03:01       0.105        1.19       0.207
  HS02004792           JUNCTION    159.34   356.43     0  03:01       0.445        1.08       0.038
  HS02004788           JUNCTION     52.70   202.58     0  03:02       0.193       0.638       0.062
  HS02004785           JUNCTION      0.15   157.28     0  03:01     0.00423       0.447       0.112
  HS02004777           JUNCTION      0.03   160.01     0  03:01    0.000846       0.447       1.175
  HS02004770           JUNCTION    133.95   163.77     0  03:01       0.365       0.449       0.699
  HS02004480           JUNCTION      0.00   456.70     0  03:01           0         1.4       0.084
  HS02004479           JUNCTION      0.00    72.19     0  03:02           0       0.228       0.322
  HS02004478           JUNCTION      0.00   609.31     0  03:02           0         2.1       0.018
  YS02001745           JUNCTION    387.96   430.53     0  02:46        2.65        2.65       0.422
  YS02001748           JUNCTION      0.04   646.65     0  02:46     0.00127        2.64       0.871
  YS02001751           JUNCTION      0.01   395.41     0  03:01     0.00031        2.61       0.907
  YS02001754           JUNCTION      0.26   395.73     0  03:01     0.00733         2.6       0.954
  YS02001762           JUNCTION      0.00   388.77     0  02:55           0        1.82       1.173
  YS02001765           JUNCTION      0.00   388.66     0  02:55           0        1.82       1.355
  YS02001767           JUNCTION      0.54   388.55     0  02:55      0.0151        1.84       1.980
  YS02001770           JUNCTION    496.57   496.57     0  03:01        2.97        3.14       1.013
  YS02001774           JUNCTION      0.00   309.96     0  03:41           0        1.46       1.745
  YS02001779           JUNCTION      0.01   310.28     0  03:41    0.000141        1.43       1.087
  YS02001882           JUNCTION      0.00    44.46     0  02:47           0      0.0206      12.406
  YS02001884           JUNCTION      0.00    68.84     0  02:44           0      0.0562      12.824
  YS02001759           JUNCTION    483.56   784.88     0  02:56        2.74        4.36       0.529
  YS02001887           JUNCTION    623.03   623.06     0  03:01        3.16        3.19       0.276
  YS02001890           JUNCTION      0.00   623.10     0  03:01           0        3.14       0.299
  YS02001898           JUNCTION      0.00   517.13     0  03:05           0        3.09       0.118
  YS02001901           JUNCTION      0.00   517.10     0  03:05           0        3.08       0.225
  YS02001904           JUNCTION      0.00   517.20     0  03:05           0        3.08       0.210
  YS02001907           JUNCTION      0.00  1062.60     0  03:01           0        6.88       0.359
  YS02001910           JUNCTION      0.00   550.65     0  02:53           0        3.81       0.321
  YS02001915           JUNCTION    347.37   550.75     0  02:53        2.22        3.86       0.163
  YS02001918           JUNCTION      0.00   291.20     0  02:53           0        1.66       0.121
  YS02001619           JUNCTION    337.96   337.96     0  03:01        2.21        2.21       0.554
  YS02001629           JUNCTION      0.00   228.26     0  02:50           0        1.58       1.849
  YS02001641           JUNCTION      0.00   480.21     0  02:51           0         4.1       0.515
  YS02001644           JUNCTION    368.39  1031.54     0  03:36        2.55        8.72       0.300
  YS02001652           JUNCTION      0.00   484.40     0  03:01           0         2.3       1.011
  YS02001655           JUNCTION      0.15   483.95     0  03:01     0.00434        2.33       1.106
  YS02001920           JUNCTION      2.87   290.94     0  02:53      0.0809        1.64       0.191
  YS02001923           JUNCTION      0.04   260.71     0  02:53     0.00106        1.55       0.049
  YS02001926           JUNCTION      0.05   218.67     0  02:53     0.00147        1.53       0.226
  YS02001929           JUNCTION    163.23   163.23     0  03:01        1.53        1.53       0.038
  YS02001658           JUNCTION      0.00   574.64     0  02:46           0        2.35       1.021
  YS02001661           JUNCTION      0.00   746.29     0  02:57           0        3.03      -0.127
  YS02001664           JUNCTION    446.68   446.68     0  03:01        2.35        3.04       0.244
  YS02001622           JUNCTION      0.00   338.19     0  03:01           0        2.19       1.466
  YS02001633           JUNCTION    373.80   480.69     0  02:51        2.63        4.15       0.778
  YS02001649           JUNCTION      0.00  1020.12     0  02:51           0        5.17       0.725
  YS02001757           JUNCTION      0.00  1986.12     0  02:52           0        9.77       0.953
  YS02001895           JUNCTION      0.00   517.11     0  03:05           0        3.09       0.162
  YS02001625           JUNCTION      0.00   338.15     0  03:01           0        2.16       1.803
  YS02163301           JUNCTION      0.00   228.37     0  02:50           0        1.55       1.556
  YS02163601           JUNCTION      0.11   480.67     0  02:51      0.0031        4.12       0.735
  YS02164001           JUNCTION      0.00   480.50     0  02:51           0         4.1       0.488
  YS02001647           JUNCTION      0.00   731.89     0  02:51           0        3.98       0.710
  YSB1154              JUNCTION     43.21    43.21     0  03:01       0.127       0.128       1.144
  YSB6556              JUNCTION      0.00    41.77     0  03:01           0       0.129       0.980
  YSB1174              JUNCTION     35.94    35.94     0  03:01      0.0924      0.0931       1.403
  YSB1171              JUNCTION      0.00    73.33     0  03:01           0       0.227       2.865
  YS02006553           JUNCTION      0.00   671.78     0  03:31           0        6.13       0.262
  YS02006561           JUNCTION      0.00   969.13     0  03:01           0        8.97       0.007
  YS02006556           JUNCTION      0.00   671.72     0  03:32           0        6.13       0.186
  YS02006558           JUNCTION    532.26   969.42     0  03:00         2.9           9       0.061
  YS02001783           JUNCTION      0.00   969.14     0  03:00           0        8.97       0.027
  YS02001784           JUNCTION      1.06   970.11     0  03:00      0.0299           9       0.045
  YS02001786           JUNCTION      0.06   970.21     0  03:01     0.00159           9       0.039
  YS02001788           JUNCTION      0.07   970.25     0  03:00       0.002           9       0.023
  YS02001790           JUNCTION      0.15   970.39     0  03:01     0.00437           9       0.030
  YS02001791           JUNCTION      0.00   970.43     0  03:01           0           9       0.014
  YS02001793           JUNCTION      0.00   970.55     0  03:01           0           9       0.005
  WS02004139           JUNCTION      0.32   285.32     0  07:13     0.00905        5.33       0.715
  WSC                  OUTFALL       0.00   943.18     0  03:11           0        14.1       0.000
  3                    OUTFALL       0.00   347.60     0  03:02           0        3.71       0.000
  4                    OUTFALL       0.00   324.55     0  03:02           0       0.875       0.000
  5                    OUTFALL       0.00     0.00     0  00:00           0           0       0.000 ltr
  JK-storage           STORAGE       0.00   970.49     0  03:01           0        9.15      -0.300
  CC-storage           STORAGE       0.00  1985.69     0  02:52           0        8.64      -0.177
  XR-storage           STORAGE     849.17   849.17     0  03:01        10.2        10.8      -0.002
  
  
  **********************
  Node Surcharge Summary
  **********************
  
  Surcharging occurs when water rises above the top of the highest conduit.
  ---------------------------------------------------------------------
                                               Max. Height   Min. Depth
                                   Hours       Above Crown    Below Rim
  Node                 Type      Surcharged         Meters       Meters
  ---------------------------------------------------------------------
  WS02004401           JUNCTION        0.31          0.103        1.557
  WS02004402           JUNCTION        0.37          0.106        1.634
  WS02004403           JUNCTION        0.39          0.096        1.934
  WS02004404           JUNCTION        0.77          0.149        2.631
  WS02004406           JUNCTION        0.62          0.100        2.350
  WS02004405           JUNCTION        0.69          0.130        2.670
  WS02006109           JUNCTION        2.53          0.437        1.383
  WS02006110           JUNCTION        1.21          0.194        1.656
  WS02006112           JUNCTION        1.30          0.379        1.301
  WS02006115           JUNCTION        0.10          0.044        2.206
  WS02006116           JUNCTION        0.14          0.052        2.238
  WS02006230           JUNCTION        0.71          0.301        1.269
  WS02006231           JUNCTION        0.97          0.304        1.226
  WS02006232           JUNCTION        2.63          0.408        1.072
  WS02006234           JUNCTION        1.27          0.279        0.961
  WS02006235           JUNCTION        2.00          0.297        0.993
  WS02006238           JUNCTION        2.28          0.305        1.125
  WS02006240           JUNCTION        1.20          0.202        1.188
  WS02006242           JUNCTION        1.95          0.228        0.592
  WS02006243           JUNCTION        0.72          0.111        0.659
  WS02006245           JUNCTION        0.29          0.065        0.785
  WS02006247           JUNCTION        0.33          0.063        0.697
  WS02006239           JUNCTION        1.30          0.240        1.050
  WS02006252           JUNCTION        2.37          0.193        0.907
  WS02006228           JUNCTION        2.42          0.543        1.657
  YS02001748           JUNCTION        5.01          1.190        0.000
  YS02001751           JUNCTION        5.09          1.200        0.000
  YS02001754           JUNCTION        5.28          1.150        0.000
  YS02001762           JUNCTION        5.51          1.112        0.038
  YS02001765           JUNCTION        5.48          1.054        0.046
  YS02001767           JUNCTION        5.46          0.991        0.039
  YS02001770           JUNCTION        5.42          0.920        0.000
  YS02001774           JUNCTION        5.50          1.011        0.039
  YS02001779           JUNCTION        5.27          0.680        0.000
  YS02001882           JUNCTION        1.03          0.654        0.176
  YS02001884           JUNCTION        1.06          0.686        0.184
  YS02001759           JUNCTION        5.54          1.138        0.072
  YS02001887           JUNCTION        1.14          0.760        0.190
  YS02001890           JUNCTION        1.17          0.760        0.000
  YS02001898           JUNCTION        0.99          0.540        0.200
  YS02001901           JUNCTION        1.11          0.681        0.189
  YS02001904           JUNCTION        1.09          0.639        0.211
  YS02001907           JUNCTION        1.66          0.950        0.000
  YS02001910           JUNCTION        1.21          0.795        0.305
  YS02001915           JUNCTION        1.02          0.618        0.382
  YS02001918           JUNCTION        0.78          0.417        0.393
  YS02001619           JUNCTION        5.11          0.610        0.000
  YS02001629           JUNCTION        5.12          0.470        0.000
  YS02001641           JUNCTION        5.50          0.972        0.128
  YS02001644           JUNCTION        5.50          0.920        0.000
  YS02001652           JUNCTION        5.29          1.130        0.000
  YS02001655           JUNCTION        5.13          1.200        0.000
  YS02001920           JUNCTION        0.82          0.412        0.728
  YS02001658           JUNCTION        5.02          1.300        0.000
  YS02001661           JUNCTION        0.26          1.390        0.000
  YS02001622           JUNCTION        5.13          0.620        0.000
  YS02001633           JUNCTION        5.48          0.979        0.081
  YS02001649           JUNCTION        5.52          1.050        0.000
  YS02001757           JUNCTION        5.62          1.210        0.000
  YS02001895           JUNCTION        1.00          0.569        0.181
  YS02001625           JUNCTION        5.30          0.780        0.000
  YS02163301           JUNCTION        5.45          0.918        0.112
  YS02163601           JUNCTION        5.52          1.060        0.020
  YS02164001           JUNCTION        5.49          0.987        0.113
  YS02001647           JUNCTION        5.29          0.810        0.090
  YS02006553           JUNCTION        1.72          0.969        0.221
  YS02006561           JUNCTION        0.91          0.326        0.824
  YS02006556           JUNCTION        1.41          0.891        0.459
  YS02006558           JUNCTION        1.37          0.875        0.525
  YS02001783           JUNCTION        1.45          1.600        0.000
  YS02001784           JUNCTION        1.50          1.151        0.339
  YS02001786           JUNCTION        1.46          1.177        0.253
  YS02001788           JUNCTION        1.43          1.480        0.000
  YS02001790           JUNCTION        2.84          1.157        0.000
  YS02001791           JUNCTION        2.97          1.023        0.897
  YS02001793           JUNCTION        3.17          1.103        1.497
  
  
  *********************
  Node Flooding Summary
  *********************
  
  Flooding refers to all water that overflows a node, whether it ponds or not.
  --------------------------------------------------------------------------
                                                             Total   Maximum
                                 Maximum   Time of Max       Flood    Ponded
                        Hours       Rate    Occurrence      Volume     Depth
  Node                 Flooded       LPS   days hr:min    10^6 ltr    Meters
  --------------------------------------------------------------------------
  YS02001748              0.01    254.86      0  02:48       0.000     0.000
  YS02001751              0.01     16.56      0  02:48       0.000     0.000
  YS02001754              0.01     18.52      0  02:47       0.000     0.000
  YS02001770              0.01      7.95      0  02:48       0.000     0.000
  YS02001779              2.57    310.22      0  03:41       1.409     0.000
  YS02001890              0.23    106.96      0  03:01       0.038     0.000
  YS02001907              0.65    619.12      0  03:01       0.739     0.000
  YS02001619              0.01     21.23      0  02:46       0.000     0.000
  YS02001629              0.01     38.29      0  02:44       0.000     0.000
  YS02001644              4.44   1031.32      0  03:36       6.807     0.000
  YS02001652              0.01     15.32      0  02:56       0.000     0.000
  YS02001655              0.01    159.63      0  02:40       0.000     0.000
  YS02001658              0.01    136.08      0  02:46       0.000     0.000
  YS02001661              0.01    141.89      0  02:56       0.000     0.000
  YS02001622              0.01     24.74      0  02:44       0.000     0.000
  YS02001649              0.10     42.05      0  03:07       0.005     0.000
  YS02001757              0.01     18.34      0  02:48       0.000     0.000
  YS02001625              1.16    316.55      0  03:01       0.549     0.000
  YS02001783              0.01    124.30      0  02:43       0.000     0.000
  YS02001788              0.01     81.04      0  02:43       0.000     0.000
  YS02001790              0.01    111.74      0  02:42       0.000     0.000
  JK-storage              2.52    670.43      0  03:01       3.447     0.000
  XR-storage              4.91    744.65      0  03:01       4.571     0.000
  
  
  **********************
  Storage Volume Summary
  **********************
  
  --------------------------------------------------------------------------------------------------
                         Average     Avg  Evap Exfil       Maximum     Max    Time of Max    Maximum
                          Volume    Pcnt  Pcnt  Pcnt        Volume    Pcnt     Occurrence    Outflow
  Storage Unit           1000 m3    Full  Loss  Loss       1000 m3    Full    days hr:min        LPS
  --------------------------------------------------------------------------------------------------
  JK-storage               0.179      61     0     0         0.291     100       0  02:42     391.43
  CC-storage               2.945      19     0     0         3.852      25       0  04:05     400.00
  XR-storage               0.900      97     0     0         0.926     100       0  02:20     285.00
  
  
  ***********************
  Outfall Loading Summary
  ***********************
  
  -----------------------------------------------------------
                         Flow       Avg       Max       Total
                         Freq      Flow      Flow      Volume
  Outfall Node           Pcnt       LPS       LPS    10^6 ltr
  -----------------------------------------------------------
  WSC                   99.99    581.91    943.18      14.147
  3                     95.28    180.13    347.60       3.715
  4                     45.09     93.58    324.55       0.875
  5                      0.00      0.00      0.00       0.000
  -----------------------------------------------------------
  System                60.09    855.62   1523.25      18.738
  
  
  ********************
  Link Flow Summary
  ********************
  
  -----------------------------------------------------------------------------
                                 Maximum  Time of Max   Maximum    Max/    Max/
                                  |Flow|   Occurrence   |Veloc|    Full    Full
  Link                 Type          LPS  days hr:min     m/sec    Flow   Depth
  -----------------------------------------------------------------------------
  WS02003066WSF200     CONDUIT    796.30     0  03:05      3.04    0.13    0.28
  WS02006287WS02006284 CONDUIT    610.97     0  03:02      2.31    0.28    0.37
  WS02006284WS02006280 CONDUIT    611.96     0  03:02      2.55    0.26    0.35
  WS02006280WS02006229 CONDUIT    612.08     0  03:02      4.12    0.13    0.24
  WS02006229WS02006228 CONDUIT    784.01     0  03:02      1.56    2.60    1.00
  WS02006256WS02006235 CONDUIT    166.25     0  00:01      2.58    1.76    1.00
  WS02006253WS02006251 CONDUIT    133.75     0  03:01      0.45    0.40    1.00
  WS02006252WS02006251 CONDUIT    400.33     0  03:15      3.19    1.47    1.00
  WS02006251WS02006249 CONDUIT    532.47     0  03:02      1.38    1.54    1.00
  WS02006249WS02006248 CONDUIT    376.95     0  02:07      1.22    2.06    0.99
  WS02006248WS02006247 CONDUIT    371.12     0  02:07      1.20    0.81    1.00
  WS02006247WS02006245 CONDUIT    364.78     0  02:07      1.16    2.89    1.00
  WS02006245WS02006243 CONDUIT    356.20     0  02:07      1.21    1.05    1.00
  WS02006243WS02006242 CONDUIT    343.04     0  02:08      1.04    0.73    1.00
  WS02006242WS02006240 CONDUIT    328.32     0  02:08      0.93    1.30    1.00
  WS02006240WS02006239 CONDUIT    308.97     0  02:08      0.91    0.97    1.00
  WS02006239WS02006238 CONDUIT    306.84     0  06:12      0.80    0.98    1.00
  WS02006238WS02006235 CONDUIT    306.59     0  06:12      1.25    0.68    1.00
  WS02006235WS02006234 CONDUIT    388.51     0  06:12      1.04    4.10    1.00
  WS02006234WS02006232 CONDUIT    387.56     0  06:12      1.13    0.78    1.00
  WS02006232WS02006231 CONDUIT    387.41     0  06:12      1.06    0.81    1.00
  WS02006231WS02006230 CONDUIT    387.12     0  06:31      1.31    5.87    1.00
  WS02006230WS02006229 CONDUIT    397.40     0  06:31      1.03    8.84    1.00
  WS02006228WS02006109 CONDUIT    784.03     0  03:02      1.56    3.43    1.00
  WS02006116WS02004401 CONDUIT    799.42     0  03:03      1.02    1.10    1.00
  WS02006115WS02006116 CONDUIT    799.27     0  03:03      1.02    1.03    1.00
  WS02006113WS02006111 CONDUIT    781.90     0  03:03      2.60    0.94    0.75
  WS02006112WS02006115 CONDUIT    799.02     0  03:03      1.02    0.47    1.00
  WS02006111WS02006112 CONDUIT    781.55     0  03:03      1.72    0.37    0.87
  WS02006110WS02006113 CONDUIT    785.18     0  03:02      1.68    0.71    0.88
  WS02006109WS02006110 CONDUIT    785.22     0  03:02      1.56    1.51    1.00
  WS02004411WS02004412 CONDUIT    795.84     0  03:04      1.14    1.13    0.83
  WS02004401WS02004402 CONDUIT    799.51     0  03:03      1.02    0.96    1.00
  WS02004413WS02003067 CONDUIT    795.65     0  03:05      1.39    0.34    0.69
  WS02004412WS02004413 CONDUIT    795.56     0  03:05      1.07    0.53    0.90
  WS02004410WS02004411 CONDUIT    796.71     0  03:04      1.13    1.09    0.84
  WS02004409WS02004410 CONDUIT    797.95     0  03:04      1.13    1.03    0.85
  WS02004407WS02004409 CONDUIT    799.73     0  03:04      1.61    0.28    0.60
  WS02004406WS02004407 CONDUIT    799.97     0  03:03      1.40    0.36    0.68
  WS02004405WS02004406 CONDUIT    799.90     0  03:03      1.02    1.58    1.00
  WS02004404WS02004405 CONDUIT    799.83     0  03:03      1.02    7.84    1.00
  WS02004403WS02004404 CONDUIT    799.64     0  03:03      1.02    0.58    1.00
  WS02004402WS02004403 CONDUIT    799.58     0  03:03      1.02    1.15    1.00
  WS02004139WS02001211 CONDUIT    285.62     0  07:20      0.69    0.36    0.53
  WS02004138WS02004139 CONDUIT    285.00     0  07:13      2.94    0.06    0.38
  WS02003067WS02003066 CONDUIT    796.17     0  03:05      1.51    0.26    0.47
  WS02001213WS02003059 CONDUIT    295.56     0  07:21      0.65    0.49    0.73
  WS02001212WS02001213 CONDUIT    294.14     0  07:20      1.17    0.45    0.41
  WS02001211WS02001212 CONDUIT    293.47     0  07:20      0.66    0.22    0.57
  WS02003072WS02003073 CONDUIT    941.38     0  03:11      1.73    2.03    0.49
  WS02003069WS02003072 CONDUIT    941.44     0  03:10      1.62    0.45    0.51
  WS02003060WS02003069 CONDUIT    941.17     0  03:09      1.87    0.37    0.46
  WS02003059WS02003060 CONDUIT    297.76     0  07:21      0.80    0.19    0.64
  HS02004901HS02004770 CONDUIT     32.24     0  03:01      0.09    0.12    0.50
  HS02004876HS02004881 CONDUIT    119.33     0  03:01      1.17    1.27    0.15
  HS02004870HS02004876 CONDUIT     96.13     0  03:01      0.79    0.06    0.17
  HS02004842HS02004848 CONDUIT     15.11     0  03:01      0.07    0.01    0.33
  HS02004837HS02004842 CONDUIT     16.10     0  03:03      0.41    0.01    0.34
  HS02004830HS02004837 CONDUIT     61.24     0  03:01      0.66    0.06    0.13
  HS02004824HS02004830 CONDUIT     60.79     0  03:01      0.63    0.08    0.15
  HS02004817HS02004824 CONDUIT    117.39     0  03:02      0.30    0.05    0.56
  HS02004770HS02004777 CONDUIT    159.98     0  03:01      0.45    0.29    0.51
  HS02004799HS02004480 CONDUIT    387.38     0  03:01      1.00    0.49    0.56
  HS02004792HS02004799 CONDUIT    353.06     0  03:01      1.12    0.22    0.45
  HS02004788HS02004792 CONDUIT    202.14     0  03:02      1.22    0.13    0.24
  HS02004785HS02004788 CONDUIT    156.68     0  03:02      0.85    1.18    0.26
  HS02004777HS02004785 CONDUIT    157.13     0  03:01      0.53    0.19    0.42
  HS02004480HS02004478 CONDUIT    456.75     0  03:01      1.47    1.92    0.44
  HS02004479HS02004480 CONDUIT     74.07     0  03:02      0.22    0.07    0.53
  HS02004862HS02004870 CONDUIT     73.11     0  03:01      0.77    0.08    0.14
  HS02004848HS02004852 CONDUIT     35.11     0  03:01      0.52    0.04    0.10
  HS02004856HS02004862 CONDUIT     51.23     0  03:01      0.58    0.05    0.13
  HS02004852HS02004856 CONDUIT     35.02     0  03:02      0.32    0.04    0.16
  HS02004802HS02004478 CONDUIT    160.68     0  03:04      0.54    0.14    0.45
  HS02004478WS02006287 CONDUIT    609.84     0  03:02      2.03    0.17    0.33
  HS02004817HS02004807 CONDUIT    120.81     0  03:04      0.24    0.07    0.73
  HS02004807HS02004802 CONDUIT    156.92     0  03:03      0.45    0.30    0.51
  YS02001759YS02001757 CONDUIT    784.74     0  02:56      1.00    0.56    1.00
  YS02001762YS02001759 CONDUIT    388.80     0  02:55      0.50    0.45    1.00
  YS02001765YS02001762 CONDUIT    388.77     0  02:55      0.49    0.36    1.00
  YS02001770YS02001767 CONDUIT    388.02     0  02:55      0.49    1.54    1.00
  YS02001774YS02001770 CONDUIT    309.96     0  03:41      0.39    0.20    1.00
  YS02001779YS02001774 CONDUIT    310.27     0  03:41      0.40    0.16    1.00
  YS02001649YS02001757 CONDUIT   1020.20     0  02:51      1.30    0.62    1.00
  YS02001767YS02001765 CONDUIT    388.66     0  02:55      0.49    0.49    1.00
  YS02006561YS02001783 CONDUIT    969.14     0  03:00      2.12    0.50    1.00
  YS02001783YS02001784 CONDUIT    969.05     0  03:00      1.93    1.34    1.00
  YS02001784YS02001785 CONDUIT    970.15     0  03:01      1.93    2.26    1.00
  YS02001788YS02001790 CONDUIT    970.23     0  03:01      2.32    0.72    1.00
  YS02001790YS02001791 CONDUIT    970.43     0  03:01      2.82    1.06    1.00
  YS02001791YS02001793 CONDUIT    970.55     0  03:01      5.67    0.42    1.00
  YS02001910YS02001907 CONDUIT    550.80     0  02:53      0.70    0.31    1.00
  YS02001786YS02001788 CONDUIT    970.18     0  03:00      2.22    1.87    1.00
  YS02001915YS02001910 CONDUIT    550.65     0  02:53      0.70    0.27    1.00
  YS02001918YS02001915 CONDUIT    291.41     0  02:53      0.44    0.16    1.00
  YS02001923YS02001920 CONDUIT    288.07     0  02:53      0.72    0.13    1.00
  YS02001926YS02001923 CONDUIT    260.67     0  02:53      0.82    0.37    0.98
  YS02001929YS02001926 CONDUIT    218.61     0  02:53      0.87    0.10    0.87
  YS02001920YS02001918 CONDUIT    291.20     0  02:53      0.70    0.28    1.00
  YS02001629YS02163301 CONDUIT    228.37     0  02:50      0.29    0.28    1.00
  YS02001619YS02001622 CONDUIT    338.19     0  03:01      0.60    0.50    1.00
  YS02001622YS02001625 CONDUIT    338.15     0  03:01      0.43    0.18    1.00
  YS02001625YS02001629 CONDUIT    228.26     0  02:50      0.29    0.11    1.00
  YS02163301YS02001633 CONDUIT    228.84     0  02:50      0.29    0.22    1.00
  YS02163601YS02164001 CONDUIT    480.50     0  02:51      0.61    0.43    1.00
  YS02164001YS02001641 CONDUIT    480.21     0  02:51      0.61    0.66    1.00
  YS02001641YS02001644 CONDUIT    479.89     0  02:50      0.61    1.55    1.00
  YS02001647YS02001649 CONDUIT    732.08     0  02:51      0.93    0.39    1.00
  YS02006553YS02006556 CONDUIT    671.72     0  03:32      0.86    0.57    1.00
  YS02006556YS02006558 CONDUIT    671.88     0  03:31      0.86    0.53    1.00
  YSB6556YSB1171       CONDUIT     41.33     0  03:02      0.13    0.04    0.80
  YS02001907YS02006553 CONDUIT    671.78     0  03:31      0.75    0.79    1.00
  YS02006558YS02006561 CONDUIT    969.13     0  03:01      3.43    2.14    1.00
  YS02001633YS02163601 CONDUIT    480.56     0  02:51      0.61    0.50    1.00
  YS02001644YS02001647 CONDUIT    731.89     0  02:51      0.93    0.43    1.00
  YS02001745YS02001748 CONDUIT    646.60     0  02:46      1.48    0.25    0.94
  YS02001748YS02001751 CONDUIT    395.40     0  03:01      1.03    0.20    1.00
  YS02001751YS02001754 CONDUIT    395.47     0  03:01      0.84    0.19    1.00
  YS02001754YS02001757 CONDUIT    395.83     0  03:01      0.50    0.16    1.00
  YS02001882YS02001884 CONDUIT     44.46     0  02:47      0.08    0.05    1.00
  YS02001884YS02001887 CONDUIT     68.84     0  02:44      0.09    0.09    1.00
  YS02001890YS02001895 CONDUIT    517.11     0  03:05      0.66    0.24    1.00
  YS02001895YS02001898 CONDUIT    517.13     0  03:05      0.66    0.90    1.00
  YS02001898YS02001901 CONDUIT    517.10     0  03:05      0.66    0.33    1.00
  YS02001901YS02001904 CONDUIT    517.20     0  03:05      0.66    0.80    1.00
  YS02001904YS02001907 CONDUIT    517.04     0  03:05      0.66    0.18    1.00
  YS02001887YS02001890 CONDUIT    623.10     0  03:01      0.79    1.07    1.00
  YS02001652YS02001649 CONDUIT    484.57     0  03:01      0.62    0.24    1.00
  YS02001655YS02001652 CONDUIT    484.40     0  03:01      0.89    0.24    1.00
  YS02001658YS02001655 CONDUIT    483.80     0  03:01      1.18    0.21    1.00
  YS02001661YS02001658 CONDUIT    574.64     0  02:46      1.56    0.23    1.00
  YS02001664YS02001661 CONDUIT    746.29     0  02:57      1.62    0.23    0.72
  YSB1154YSB6556       CONDUIT     41.77     0  03:01      0.19    0.08    0.69
  YSB1174YSB1171       CONDUIT     34.49     0  03:01      0.10    0.05    0.81
  YSB1171HS02004479    CONDUIT     72.19     0  03:02      0.54    0.05    0.65
  HS02004881HS02006253 CONDUIT    131.62     0  03:01      1.56    0.03    0.38
  YS02001793JiankangQianchi CONDUIT    970.49     0  03:01     13.02    0.08    1.00
  YS02001757CaochengTiaoxuchi CONDUIT   1985.69     0  02:52      2.83    0.87    1.00
  WSF200WS02003060     CONDUIT    796.20     0  03:05      2.11    0.18    0.37
  1                    CONDUIT    943.18     0  03:11      3.27    0.33    0.39
  2                    CONDUIT    324.55     0  03:02      6.52    0.78    0.66
  3                    CONDUIT    347.60     0  03:02      9.04    0.55    0.53
  4                    CONDUIT      0.00     0  00:00      0.00    0.00    0.00
  CC-Pump-1            PUMP       200.00     0  02:06              1.00
  CC-Pump-2            PUMP       200.00     0  02:06              1.00
  JK-Pump-1            PUMP         0.00     0  00:00              0.00
  JK-Pump-2            PUMP       300.00     0  00:00              1.00
  XR-Pump-1            PUMP        95.00     0  00:00              1.00
  XR-Pump-2            PUMP        95.00     0  00:00              1.00
  XR-Pump-3            PUMP         0.00     0  00:00              0.00
  XR-Pump-4            PUMP        95.00     0  00:20              1.00
  
  
  ***************************
  Flow Classification Summary
  ***************************
  
  -------------------------------------------------------------------------------------
                      Adjusted    ---------- Fraction of Time in Flow Class ---------- 
                       /Actual         Up    Down  Sub   Sup   Up    Down  Norm  Inlet 
  Conduit               Length    Dry  Dry   Dry   Crit  Crit  Crit  Crit  Ltd   Ctrl  
  -------------------------------------------------------------------------------------
  WS02003066WSF200        1.00   0.06  0.00  0.00  0.00  0.94  0.00  0.00  0.60  0.00
  WS02006287WS02006284    1.00   0.04  0.01  0.00  0.58  0.37  0.00  0.00  0.67  0.00
  WS02006284WS02006280    1.00   0.04  0.00  0.00  0.00  0.00  0.00  0.96  0.00  0.00
  WS02006280WS02006229    1.00   0.04  0.00  0.00  0.00  0.00  0.00  0.96  0.00  0.00
  WS02006229WS02006228    1.00   0.00  0.00  0.00  0.99  0.00  0.00  0.01  0.00  0.00
  WS02006256WS02006235    1.00   0.00  0.00  0.00  1.00  0.00  0.00  0.00  0.00  0.00
  WS02006253WS02006251    1.00   0.03  0.01  0.00  0.96  0.00  0.00  0.00  0.00  0.00
  WS02006252WS02006251    1.00   0.07  0.00  0.00  0.00  0.00  0.93  0.00  0.00  0.00
  WS02006251WS02006249    1.00   0.00  0.00  0.00  1.00  0.00  0.00  0.00  0.28  0.00
  WS02006249WS02006248    1.00   0.00  0.02  0.00  0.87  0.00  0.11  0.00  0.00  0.00
  WS02006248WS02006247    1.00   0.02  0.00  0.00  0.98  0.00  0.00  0.00  0.17  0.00
  WS02006247WS02006245    1.00   0.02  0.00  0.00  0.98  0.00  0.00  0.00  0.00  0.00
  WS02006245WS02006243    1.00   0.01  0.00  0.00  0.95  0.00  0.00  0.04  0.01  0.00
  WS02006243WS02006242    1.00   0.01  0.00  0.00  0.99  0.00  0.00  0.00  0.22  0.00
  WS02006242WS02006240    1.00   0.00  0.00  0.00  1.00  0.00  0.00  0.00  0.00  0.00
  WS02006240WS02006239    1.00   0.00  0.00  0.00  0.96  0.00  0.00  0.03  0.01  0.00
  WS02006239WS02006238    1.00   0.00  0.00  0.00  1.00  0.00  0.00  0.00  0.02  0.00
  WS02006238WS02006235    1.00   0.00  0.00  0.00  1.00  0.00  0.00  0.00  0.00  0.00
  WS02006235WS02006234    1.00   0.00  0.00  0.00  0.96  0.00  0.04  0.00  0.00  0.00
  WS02006234WS02006232    1.00   0.00  0.00  0.00  1.00  0.00  0.00  0.00  0.12  0.00
  WS02006232WS02006231    1.00   0.00  0.00  0.00  0.99  0.00  0.00  0.00  0.00  0.00
  WS02006231WS02006230    1.00   0.00  0.00  0.00  0.63  0.00  0.37  0.00  0.00  0.00
  WS02006230WS02006229    1.00   0.00  0.00  0.00  0.99  0.00  0.00  0.01  0.01  0.00
  WS02006228WS02006109    1.00   0.00  0.00  0.00  1.00  0.00  0.00  0.00  0.00  0.00
  WS02006116WS02004401    1.00   0.02  0.00  0.00  0.98  0.00  0.00  0.00  0.00  0.00
  WS02006115WS02006116    1.00   0.02  0.00  0.00  0.97  0.00  0.00  0.01  0.00  0.00
  WS02006113WS02006111    1.00   0.02  0.00  0.00  0.03  0.95  0.00  0.00  0.10  0.00
  WS02006112WS02006115    1.00   0.02  0.00  0.00  0.97  0.00  0.00  0.00  0.00  0.00
  WS02006111WS02006112    1.00   0.02  0.00  0.00  0.98  0.00  0.00  0.00  0.89  0.00
  WS02006110WS02006113    1.00   0.01  0.01  0.00  0.98  0.00  0.00  0.00  0.00  0.00
  WS02006109WS02006110    1.00   0.00  0.01  0.00  0.98  0.00  0.01  0.00  0.00  0.00
  WS02004411WS02004412    1.00   0.04  0.00  0.00  0.96  0.00  0.00  0.00  0.00  0.00
  WS02004401WS02004402    1.00   0.02  0.00  0.00  0.98  0.00  0.00  0.00  0.00  0.00
  WS02004413WS02003067    1.00   0.04  0.01  0.00  0.00  0.00  0.95  0.00  0.00  0.00
  WS02004412WS02004413    1.00   0.04  0.00  0.00  0.96  0.00  0.00  0.00  0.03  0.00
  WS02004410WS02004411    1.00   0.04  0.00  0.00  0.96  0.00  0.00  0.00  0.04  0.00
  WS02004409WS02004410    1.00   0.04  0.00  0.00  0.96  0.00  0.00  0.00  0.04  0.00
  WS02004407WS02004409    1.00   0.04  0.00  0.00  0.96  0.00  0.00  0.00  0.89  0.00
  WS02004406WS02004407    1.00   0.00  0.04  0.00  0.96  0.00  0.00  0.00  0.00  0.00
  WS02004405WS02004406    1.00   0.00  0.00  0.00  1.00  0.00  0.00  0.00  0.01  0.00
  WS02004404WS02004405    1.00   0.00  0.00  0.00  1.00  0.00  0.00  0.00  0.00  0.00
  WS02004403WS02004404    1.00   0.00  0.03  0.00  0.97  0.00  0.00  0.00  0.01  0.00
  WS02004402WS02004403    1.00   0.02  0.00  0.00  0.98  0.00  0.00  0.00  0.00  0.00
  WS02004139WS02001211    1.00   0.00  0.00  0.00  1.00  0.00  0.00  0.00  0.00  0.00
  WS02004138WS02004139    1.00   0.00  0.00  0.00  0.99  0.01  0.00  0.00  1.00  0.00
  WS02003067WS02003066    1.00   0.05  0.01  0.00  0.94  0.00  0.00  0.00  0.00  0.00
  WS02001213WS02003059    1.00   0.00  0.00  0.00  0.99  0.00  0.00  0.00  0.00  0.00
  WS02001212WS02001213    1.00   0.00  0.00  0.00  0.84  0.00  0.15  0.00  0.00  0.00
  WS02001211WS02001212    1.00   0.00  0.00  0.00  1.00  0.00  0.00  0.00  0.00  0.00
  WS02003072WS02003073    1.00   0.00  0.00  0.00  0.00  0.00  0.00  1.00  0.00  0.00
  WS02003069WS02003072    1.00   0.00  0.00  0.00  0.99  0.01  0.00  0.00  0.24  0.00
  WS02003060WS02003069    1.00   0.00  0.00  0.00  0.99  0.01  0.00  0.00  0.17  0.00
  WS02003059WS02003060    1.00   0.00  0.00  0.00  1.00  0.00  0.00  0.00  0.01  0.00
  HS02004901HS02004770    1.00   0.04  0.00  0.00  0.96  0.00  0.00  0.00  0.01  0.00
  HS02004876HS02004881    1.00   0.02  0.00  0.00  0.86  0.12  0.00  0.00  0.00  0.00
  HS02004870HS02004876    1.00   0.01  0.00  0.00  0.99  0.00  0.00  0.00  0.95  0.00
  HS02004842HS02004848    1.00   0.00  0.04  0.00  0.96  0.00  0.00  0.00  0.58  0.00
  HS02004837HS02004842    1.00   0.00  0.00  0.00  0.99  0.01  0.00  0.00  0.11  0.00
  HS02004830HS02004837    1.00   0.00  0.00  0.00  1.00  0.00  0.00  0.00  0.99  0.00
  HS02004824HS02004830    1.00   0.00  0.00  0.00  1.00  0.00  0.00  0.00  0.01  0.00
  HS02004817HS02004824    1.00   0.00  0.00  0.00  1.00  0.00  0.00  0.00  0.98  0.00
  HS02004770HS02004777    1.00   0.00  0.04  0.00  0.96  0.00  0.00  0.00  0.04  0.00
  HS02004799HS02004480    1.00   0.00  0.02  0.00  0.95  0.00  0.02  0.00  0.00  0.00
  HS02004792HS02004799    1.00   0.00  0.00  0.00  0.99  0.01  0.00  0.00  0.98  0.00
  HS02004788HS02004792    1.00   0.00  0.00  0.00  0.99  0.01  0.00  0.00  0.98  0.00
  HS02004785HS02004788    1.00   0.00  0.00  0.00  1.00  0.00  0.00  0.00  0.00  0.00
  HS02004777HS02004785    1.00   0.00  0.00  0.00  1.00  0.00  0.00  0.00  0.15  0.00
  HS02004480HS02004478    1.00   0.04  0.00  0.00  0.66  0.00  0.00  0.30  0.00  0.00
  HS02004479HS02004480    1.00   0.03  0.00  0.00  0.97  0.00  0.00  0.00  0.13  0.00
  HS02004862HS02004870    1.00   0.00  0.00  0.00  1.00  0.00  0.00  0.00  0.06  0.00
  HS02004848HS02004852    1.00   0.04  0.00  0.00  0.96  0.00  0.00  0.00  0.64  0.00
  HS02004856HS02004862    1.00   0.00  0.05  0.00  0.95  0.00  0.00  0.00  0.79  0.00
  HS02004852HS02004856    1.00   0.04  0.00  0.00  0.96  0.00  0.00  0.00  0.81  0.00
  HS02004802HS02004478    1.00   0.04  0.00  0.00  0.96  0.00  0.00  0.00  0.03  0.00
  HS02004478WS02006287    1.00   0.05  0.00  0.00  0.71  0.24  0.00  0.00  0.66  0.00
  HS02004817HS02004807    1.00   0.00  0.04  0.00  0.96  0.00  0.00  0.00  0.01  0.00
  HS02004807HS02004802    1.00   0.04  0.00  0.00  0.96  0.00  0.00  0.00  0.00  0.00
  YS02001759YS02001757    1.00   0.00  0.00  0.00  1.00  0.00  0.00  0.00  0.17  0.00
  YS02001762YS02001759    1.00   0.00  0.00  0.00  1.00  0.00  0.00  0.00  0.04  0.00
  YS02001765YS02001762    1.00   0.00  0.00  0.00  1.00  0.00  0.00  0.00  0.17  0.00
  YS02001770YS02001767    1.00   0.00  0.00  0.00  1.00  0.00  0.00  0.00  0.00  0.00
  YS02001774YS02001770    1.00   0.00  0.04  0.00  0.96  0.00  0.00  0.00  0.04  0.00
  YS02001779YS02001774    1.00   0.00  0.00  0.00  1.00  0.00  0.00  0.00  0.22  0.00
  YS02001649YS02001757    1.00   0.00  0.00  0.00  1.00  0.00  0.00  0.00  0.17  0.00
  YS02001767YS02001765    1.00   0.00  0.00  0.00  1.00  0.00  0.00  0.00  0.01  0.00
  YS02006561YS02001783    1.00   0.06  0.00  0.00  0.48  0.46  0.00  0.00  0.54  0.00
  YS02001783YS02001784    1.00   0.00  0.06  0.00  0.94  0.00  0.00  0.00  0.01  0.00
  YS02001784YS02001785    1.00   0.00  0.00  0.00  1.00  0.00  0.00  0.00  0.21  0.00
  YS02001788YS02001790    1.00   0.00  0.00  0.00  0.57  0.43  0.00  0.00  0.48  0.00
  YS02001790YS02001791    1.00   0.00  0.00  0.00  0.54  0.46  0.00  0.00  0.33  0.00
  YS02001791YS02001793    1.00   0.00  0.00  0.00  0.56  0.44  0.00  0.00  0.02  0.00
  YS02001910YS02001907    1.00   0.00  0.00  0.00  0.98  0.00  0.00  0.02  0.13  0.00
  YS02001786YS02001788    1.00   0.00  0.00  0.00  0.55  0.45  0.00  0.00  0.00  0.00
  YS02001915YS02001910    1.00   0.00  0.00  0.00  0.99  0.01  0.00  0.00  0.19  0.00
  YS02001918YS02001915    1.00   0.00  0.01  0.00  0.98  0.01  0.00  0.00  0.56  0.00
  YS02001923YS02001920    1.00   0.00  0.00  0.00  1.00  0.00  0.00  0.00  0.83  0.00
  YS02001926YS02001923    1.00   0.00  0.03  0.00  0.18  0.00  0.79  0.00  0.00  0.00
  YS02001929YS02001926    1.00   0.00  0.04  0.00  0.96  0.00  0.00  0.00  0.75  0.00
  YS02001920YS02001918    1.00   0.00  0.01  0.00  0.99  0.00  0.00  0.00  0.00  0.00
  YS02001629YS02163301    1.00   0.05  0.00  0.00  0.95  0.00  0.00  0.00  0.00  0.00
  YS02001619YS02001622    1.00   0.04  0.00  0.00  0.96  0.00  0.00  0.00  0.00  0.00
  YS02001622YS02001625    1.00   0.04  0.00  0.00  0.96  0.00  0.00  0.00  0.08  0.00
  YS02001625YS02001629    1.00   0.04  0.02  0.00  0.93  0.00  0.01  0.00  0.00  0.00
  YS02163301YS02001633    1.00   0.00  0.05  0.00  0.95  0.00  0.00  0.00  0.00  0.00
  YS02163601YS02164001    1.00   0.00  0.03  0.00  0.97  0.00  0.00  0.00  0.00  0.00
  YS02164001YS02001641    1.00   0.01  0.03  0.00  0.97  0.00  0.00  0.00  0.06  0.00
  YS02001641YS02001644    1.00   0.00  0.01  0.00  0.99  0.00  0.00  0.00  0.00  0.00
  YS02001647YS02001649    1.00   0.00  0.05  0.00  0.94  0.00  0.00  0.00  0.01  0.00
  YS02006553YS02006556    1.00   0.01  0.00  0.00  0.99  0.00  0.00  0.00  0.03  0.00
  YS02006556YS02006558    1.00   0.00  0.00  0.00  1.00  0.00  0.00  0.00  0.00  0.00
  YSB6556YSB1171          1.00   0.03  0.01  0.00  0.96  0.00  0.00  0.00  0.00  0.00
  YS02001907YS02006553    1.00   0.00  0.02  0.00  0.98  0.00  0.00  0.00  0.00  0.00
  YS02006558YS02006561    1.00   0.06  0.00  0.00  0.22  0.73  0.00  0.00  0.44  0.00
  YS02001633YS02163601    1.00   0.00  0.01  0.00  0.99  0.00  0.00  0.00  0.16  0.00
  YS02001644YS02001647    1.00   0.00  0.06  0.00  0.94  0.00  0.00  0.00  0.00  0.00
  YS02001745YS02001748    1.00   0.00  0.00  0.00  0.88  0.01  0.00  0.10  0.05  0.00
  YS02001748YS02001751    1.00   0.00  0.00  0.00  0.98  0.02  0.00  0.00  0.15  0.00
  YS02001751YS02001754    1.00   0.00  0.00  0.00  0.94  0.00  0.00  0.06  0.02  0.00
  YS02001754YS02001757    1.00   0.00  0.00  0.00  0.99  0.01  0.00  0.00  0.21  0.00
  YS02001882YS02001884    1.00   0.05  0.00  0.00  0.95  0.00  0.00  0.00  0.00  0.00
  YS02001884YS02001887    1.00   0.03  0.01  0.00  0.96  0.00  0.00  0.00  0.00  0.00
  YS02001890YS02001895    1.00   0.00  0.05  0.00  0.95  0.00  0.00  0.00  0.00  0.00
  YS02001895YS02001898    1.00   0.05  0.00  0.00  0.94  0.00  0.01  0.00  0.00  0.00
  YS02001898YS02001901    1.00   0.05  0.00  0.00  0.95  0.00  0.00  0.00  0.03  0.00
  YS02001901YS02001904    1.00   0.05  0.00  0.00  0.95  0.00  0.00  0.00  0.00  0.00
  YS02001904YS02001907    1.00   0.00  0.05  0.00  0.95  0.00  0.00  0.00  0.00  0.00
  YS02001887YS02001890    1.00   0.00  0.00  0.00  0.97  0.00  0.02  0.00  0.00  0.00
  YS02001652YS02001649    1.00   0.00  0.00  0.00  1.00  0.00  0.00  0.00  0.19  0.00
  YS02001655YS02001652    1.00   0.00  0.00  0.00  0.94  0.00  0.00  0.06  0.03  0.00
  YS02001658YS02001655    1.00   0.00  0.05  0.00  0.93  0.02  0.00  0.00  0.13  0.00
  YS02001661YS02001658    1.00   0.05  0.00  0.00  0.88  0.07  0.00  0.00  0.09  0.00
  YS02001664YS02001661    1.00   0.04  0.00  0.00  0.86  0.10  0.00  0.00  0.23  0.00
  YSB1154YSB6556          1.00   0.04  0.00  0.00  0.96  0.00  0.00  0.00  0.02  0.00
  YSB1174YSB1171          1.00   0.03  0.01  0.00  0.96  0.00  0.00  0.00  0.00  0.00
  YSB1171HS02004479       1.00   0.03  0.00  0.00  0.97  0.00  0.00  0.00  0.11  0.00
  HS02004881HS02006253    1.00   0.03  0.00  0.00  0.80  0.01  0.00  0.17  0.62  0.00
  YS02001793JiankangQianchi    1.00   0.00  0.00  0.00  0.72  0.28  0.00  0.00  0.13  0.00
  YS02001757CaochengTiaoxuchi    1.00   0.00  0.07  0.00  0.89  0.04  0.00  0.00  0.00  0.00
  WSF200WS02003060        1.00   0.00  0.06  0.00  0.45  0.49  0.00  0.00  0.18  0.00
  1                       1.00   0.00  0.00  0.00  0.00  1.00  0.00  0.00  0.37  0.00
  2                       1.00   0.55  0.00  0.00  0.00  0.45  0.00  0.00  0.09  0.00
  3                       1.00   0.05  0.00  0.00  0.00  0.95  0.00  0.00  0.23  0.00
  4                       1.00   1.00  0.00  0.00  0.00  0.00  0.00  0.00  0.00  0.00
  
  
  *************************
  Conduit Surcharge Summary
  *************************
  
  ----------------------------------------------------------------------------
                                                           Hours        Hours 
                         --------- Hours Full --------   Above Full   Capacity
  Conduit                Both Ends  Upstream  Dnstream   Normal Flow   Limited
  ----------------------------------------------------------------------------
  WS02006229WS02006228        2.42      2.64      2.42      4.64         2.42
  WS02006256WS02006235        5.99      5.99      6.73      3.33         0.01
  WS02006253WS02006251        0.21      0.21      0.38      0.01         0.01
  WS02006252WS02006251        1.32      1.32      2.37      2.10         0.01
  WS02006251WS02006249        0.01      0.24      0.01      1.55         0.01
  WS02006249WS02006248        0.01      0.01      0.01      4.60         0.01
  WS02006248WS02006247        0.01      0.01      0.33      0.01         0.01
  WS02006247WS02006245        0.28      0.43      0.28      4.88         0.28
  WS02006245WS02006243        0.39      0.39      0.72      0.05         0.01
  WS02006243WS02006242        0.80      0.80      1.95      0.01         0.01
  WS02006242WS02006240        1.20      1.20      2.26      1.87         0.01
  WS02006240WS02006239        1.28      1.28      1.30      0.01         0.01
  WS02006239WS02006238        2.17      2.17      2.28      0.01         0.01
  WS02006238WS02006235        2.17      2.17      2.53      0.01         0.01
  WS02006235WS02006234        1.27      1.27      2.00      6.01         0.01
  WS02006234WS02006232        1.33      1.33      2.63      0.01         0.01
  WS02006232WS02006231        0.96      0.96      2.63      0.01         0.01
  WS02006231WS02006230        0.71      0.71      1.14      6.02         0.01
  WS02006230WS02006229        3.38      3.99      3.38      6.13         3.38
  WS02006228WS02006109        2.53      3.13      2.53      5.24         2.53
  WS02006116WS02004401        0.30      0.30      0.31      0.21         0.21
  WS02006115WS02006116        0.13      0.13      0.14      0.07         0.07
  WS02006112WS02006115        0.10      0.10      1.30      0.01         0.01
  WS02006111WS02006112        0.01      0.01      4.66      0.01         0.01
  WS02006110WS02006113        0.01      0.01      2.84      0.01         0.01
  WS02006109WS02006110        1.21      1.21      3.13      1.21         0.01
  WS02004411WS02004412        0.01      0.01      0.01      0.27         0.01
  WS02004401WS02004402        0.31      0.31      0.37      0.01         0.01
  WS02004410WS02004411        0.01      0.01      0.01      0.19         0.01
  WS02004409WS02004410        0.01      0.01      0.01      0.08         0.01
  WS02004406WS02004407        0.01      0.01      0.62      0.01         0.01
  WS02004405WS02004406        0.62      0.69      0.62      1.24         0.62
  WS02004404WS02004405        0.69      0.77      0.69      5.89         0.69
  WS02004403WS02004404        0.39      0.39      0.77      0.01         0.01
  WS02004402WS02004403        0.37      0.37      0.39      0.28         0.29
  WS02003072WS02003073        0.01      0.01      0.01      5.18         0.01
  HS02004876HS02004881        0.01      0.01      0.01      0.17         0.01
  HS02004785HS02004788        0.01      0.01      0.01      0.10         0.01
  HS02004480HS02004478        0.01      0.01      0.01      0.52         0.01
  YS02001759YS02001757        5.54      5.54      5.62      0.01         0.01
  YS02001762YS02001759        5.51      5.51      5.54      0.01         0.01
  YS02001765YS02001762        5.48      5.48      5.51      0.01         0.01
  YS02001770YS02001767        5.46      5.46      5.46      0.33         0.80
  YS02001774YS02001770        5.42      5.42      5.50      0.01         0.01
  YS02001779YS02001774        5.27      5.27      5.50      0.01         0.01
  YS02001649YS02001757        5.52      5.52      5.62      0.01         0.01
  YS02001767YS02001765        5.46      5.46      5.48      0.01         0.01
  YS02006561YS02001783        0.91      0.91      1.45      0.01         0.01
  YS02001783YS02001784        1.45      1.45      1.50      1.34         1.23
  YS02001784YS02001785        1.45      1.50      1.45      2.23         1.45
  YS02001788YS02001790        1.43      1.43      2.84      0.01         0.01
  YS02001790YS02001791        2.84      2.84      2.97      0.75         0.75
  YS02001791YS02001793        2.97      2.97      3.24      0.01         0.01
  YS02001910YS02001907        1.21      1.21      1.66      0.01         0.01
  YS02001786YS02001788        1.43      1.46      1.43      1.84         1.43
  YS02001915YS02001910        1.02      1.02      1.21      0.01         0.01
  YS02001918YS02001915        0.79      0.79      1.02      0.01         0.01
  YS02001923YS02001920        0.61      0.61      0.82      0.01         0.01
  YS02001920YS02001918        0.79      0.79      0.82      0.01         0.01
  YS02001629YS02163301        5.42      5.42      5.45      0.01         0.01
  YS02001619YS02001622        5.11      5.11      5.13      0.01         0.01
  YS02001622YS02001625        5.13      5.13      5.30      0.01         0.01
  YS02001625YS02001629        5.12      5.12      5.30      0.01         0.01
  YS02163301YS02001633        5.45      5.45      5.49      0.01         0.01
  YS02163601YS02164001        5.49      5.49      5.52      0.01         0.01
  YS02164001YS02001641        5.49      5.49      5.50      0.01         0.02
  YS02001641YS02001644        5.50      5.50      5.50      1.49         1.52
  YS02001647YS02001649        5.29      5.29      5.52      0.01         0.01
  YS02006553YS02006556        1.41      1.41      1.72      0.01         0.01
  YS02006556YS02006558        1.56      1.56      1.78      0.01         0.01
  YS02001907YS02006553        2.24      2.24      2.45      0.01         0.01
  YS02006558YS02006561        1.12      1.37      1.12      2.09         1.12
  YS02001633YS02163601        5.48      5.48      5.52      0.01         0.01
  YS02001644YS02001647        5.29      5.29      5.50      0.01         0.01
  YS02001745YS02001748        0.01      0.01      5.01      0.01         0.01
  YS02001748YS02001751        5.03      5.03      5.09      0.01         0.01
  YS02001751YS02001754        5.09      5.09      5.28      0.01         0.01
  YS02001754YS02001757        5.29      5.29      5.62      0.01         0.01
  YS02001882YS02001884        1.03      1.03      1.06      0.01         0.01
  YS02001884YS02001887        1.11      1.11      1.14      0.01         0.01
  YS02001890YS02001895        1.00      1.00      1.23      0.01         0.01
  YS02001895YS02001898        0.99      0.99      1.00      0.01         0.01
  YS02001898YS02001901        1.01      1.01      1.11      0.01         0.01
  YS02001901YS02001904        1.09      1.09      1.11      0.01         0.01
  YS02001904YS02001907        1.09      1.09      1.75      0.01         0.01
  YS02001887YS02001890        1.17      1.17      1.20      0.07         0.01
  YS02001652YS02001649        5.30      5.30      5.52      0.01         0.01
  YS02001655YS02001652        5.13      5.13      5.29      0.01         0.01
  YS02001658YS02001655        5.02      5.02      5.13      0.01         0.01
  YS02001661YS02001658        0.24      0.24      5.02      0.01         0.01
  YS02001664YS02001661        0.01      0.01      1.17      0.01         0.01
  YS02001793JiankangQianchi        3.17      3.17      4.15      0.01         0.01
  YS02001757CaochengTiaoxuchi        4.80      4.80      5.62      0.01         0.01
  
  
  ***************
  Pumping Summary
  ***************
  
  ---------------------------------------------------------------------------------------------------------
                                                  Min       Avg       Max     Total     Power    % Time Off
                        Percent   Number of      Flow      Flow      Flow    Volume     Usage    Pump Curve
  Pump                 Utilized   Start-Ups       LPS       LPS       LPS  10^6 ltr     Kw-hr    Low   High
  ---------------------------------------------------------------------------------------------------------
  CC-Pump-1               42.50           3      0.00    163.47    200.00     1.942      3.86    0.0   19.2
  CC-Pump-2               70.15           3      0.00    151.16    200.00     2.962      4.21    0.0   11.6
  JK-Pump-1                0.00           0      0.00      0.00      0.00     0.000      0.00    0.0    0.0
  JK-Pump-2              100.00           1      0.00    256.03    300.00     5.725     49.97    0.0    0.0
  XR-Pump-1               91.48           5      0.00     68.76     95.00     1.824     12.31    0.0    0.0
  XR-Pump-2              100.00           1      0.00     88.55     95.00     2.451     15.18    0.0    0.0
  XR-Pump-3                0.00           0      0.00      0.00      0.00     0.000      0.00    0.0    0.0
  XR-Pump-4               61.69          11      0.00     60.40     95.00     1.054      6.40    0.0    0.0
  

  Analysis begun on:  Thu Jan  6 15:24:31 2022
  Analysis ended on:  Thu Jan  6 15:24:36 2022
  Total elapsed time: 00:00:05