
  EPA STORM WATER MANAGEMENT MODEL - VERSION 5.1 (Build 5.3.0.dev0)
  --------------------------------------------------------------

  WARNING 04: minimum elevation drop used for Conduit WS02004404WS02004405
  WARNING 03: negative offset ignored for Link YS02001904YS02001907
  
  *********************************************************
  NOTE: The summary statistics displayed in this report are
  based on results found at every computational time step,  
  not just on results from each reporting time step.
  *********************************************************
  
  ****************
  Analysis Options
  ****************
  Flow Units ............... LPS
  Process Models:
    Rainfall/Runoff ........ YES
    RDII ................... NO
    Snowmelt ............... NO
    Groundwater ............ NO
    Flow Routing ........... YES
    Ponding Allowed ........ NO
    Water Quality .......... NO
  Infiltration Method ...... HORTON
  Flow Routing Method ...... DYNWAVE
  Surcharge Method ......... EXTRAN
  Starting Date ............ 08/28/2015 08:00:00
  Ending Date .............. 08/28/2015 15:50:00
  Antecedent Dry Days ...... 8.0
  Report Time Step ......... 00:01:00
  Wet Time Step ............ 00:01:00
  Dry Time Step ............ 00:01:00
  Routing Time Step ........ 5.00 sec
  Variable Time Step ....... YES
  Maximum Trials ........... 8
  Number of Threads ........ 4
  Head Tolerance ........... 0.001500 m
  
  
  **************************        Volume         Depth
  Runoff Quantity Continuity     hectare-m            mm
  **************************     ---------       -------
  Total Precipitation ......         7.641        16.729
  Evaporation Loss .........         0.000         0.000
  Infiltration Loss ........         1.880         4.117
  Surface Runoff ...........         4.668        10.221
  Final Storage ............         1.093         2.393
  Continuity Error (%) .....        -0.013
  
  
  **************************        Volume        Volume
  Flow Routing Continuity        hectare-m      10^6 ltr
  **************************     ---------     ---------
  Dry Weather Inflow .......         0.616         6.165
  Wet Weather Inflow .......         4.667        46.670
  Groundwater Inflow .......         0.000         0.000
  RDII Inflow ..............         0.000         0.000
  External Inflow ..........         0.102         1.024
  External Outflow .........         2.013        20.132
  Flooding Loss ............         2.803        28.031
  Evaporation Loss .........         0.000         0.000
  Exfiltration Loss ........         0.000         0.000
  Initial Stored Volume ....         0.076         0.761
  Final Stored Volume ......         0.652         6.517
  Continuity Error (%) .....        -0.111
  
  
  *************************
  Highest Continuity Errors
  *************************
  Node HS02004842 (12.71%)
  Node YS02001884 (11.19%)
  Node HS02004817 (2.32%)
  Node YSB1171 (2.18%)
  Node YS02163301 (1.65%)
  
  
  ***************************
  Time-Step Critical Elements
  ***************************
  Link 3 (52.70%)
  Link WS02006252WS02006251 (38.60%)
  Link WS02006238WS02006235 (3.58%)
  Link WS02006280WS02006229 (1.02%)
  
  
  ********************************
  Highest Flow Instability Indexes
  ********************************
  Link YS02163601YS02164001 (39)
  Link YS02163301YS02001633 (39)
  Link YS02001629YS02163301 (38)
  Link YS02001619YS02001622 (37)
  Link WS02006113WS02006111 (36)
  
  
  *************************
  Routing Time Step Summary
  *************************
  Minimum Time Step           :     0.12 sec
  Average Time Step           :     0.79 sec
  Maximum Time Step           :     5.00 sec
  Percent in Steady State     :    -0.00
  Average Iterations per Step :     4.30
  Percent Not Converging      :    16.70
  
  
  ***************************
  Subcatchment Runoff Summary
  ***************************
  
  ------------------------------------------------------------------------------------------------------------------------------
                            Total      Total      Total      Total     Imperv       Perv      Total       Total     Peak  Runoff
                           Precip      Runon       Evap      Infil     Runoff     Runoff     Runoff      Runoff   Runoff   Coeff
  Subcatchment                 mm         mm         mm         mm         mm         mm         mm    10^6 ltr      LPS
  ------------------------------------------------------------------------------------------------------------------------------
  sub0                      16.73       0.00       0.00       0.97      14.29       0.20      14.50        0.01     3.66   0.867
  sub1                      16.73       0.00       0.00       1.58      13.63       0.26      13.89        0.09    24.51   0.830
  sub2                      16.73       0.00       0.00       5.80       9.63       0.39      10.02        0.09    22.91   0.599
  sub3                      16.73       0.00       0.00       5.88       9.59       0.31       9.90        0.22    50.49   0.592
  sub4                      16.73       0.00       0.00       1.65      13.47       0.19      13.66        0.28    60.01   0.817
  sub5                      16.73       0.00       0.00       0.99      14.24       0.18      14.42        0.16    43.61   0.862
  sub7                      16.73       0.00       0.00       1.26      13.97       0.24      14.21        0.05    13.82   0.849
  sub8                      16.73       0.00       0.00       1.27      13.96       0.23      14.19        0.09    25.44   0.848
  sub9                      16.73       0.00       0.00       1.27      13.96       0.23      14.19        0.07    19.02   0.848
  sub10                     16.73       0.00       0.00       1.13      14.10       0.21      14.30        0.16    42.73   0.855
  sub11                     16.73       0.00       0.00       1.12      14.11       0.21      14.33        0.17    47.25   0.857
  sub12                     16.73       0.00       0.00       1.83      13.37       0.35      13.71        0.12    35.87   0.820
  sub14                     16.73       0.00       0.00       1.27      13.95       0.23      14.19        0.14    37.43   0.848
  sub15                     16.73       0.00       0.00       4.53      10.73       0.49      11.22        0.19    51.47   0.671
  sub16                     16.73       0.00       0.00       4.88      10.29       0.64      10.93        0.11    32.57   0.653
  sub17                     16.73       0.00       0.00       4.74      10.44       0.61      11.05        0.09    26.81   0.661
  sub22                     16.73       0.00       0.00       6.60       8.75       0.59       9.34        0.59   160.16   0.558
  sub23                     16.73       0.00       0.00       5.59       9.67       0.60      10.27        0.49   134.74   0.614
  sub60                     16.73       0.00       0.00       1.94      11.65       0.06      11.71        3.55   386.89   0.700
  sub61                     16.73       0.00       0.00       2.75      11.65       0.09      11.73        3.62   476.87   0.701
  sub62                     16.73       0.00       0.00       1.26      12.72       0.07      12.79        3.93   491.27   0.765
  sub63                     16.73       0.00       0.00       4.75      10.14       0.10      10.23        3.10   437.54   0.612
  sub64                     16.73       0.00       0.00       2.45      11.19       0.06      11.26        3.42   367.58   0.673
  sub65                     16.73       0.00       0.00       2.11      11.40       0.06      11.46        3.52   372.98   0.685
  sub66                     16.73       0.00       0.00       4.79       9.55       0.06       9.61        2.95   336.52   0.575
  sub67                     16.73       0.00       0.00       1.24      13.25       0.09      13.35        4.12   605.48   0.798
  sub68                     16.73       0.00       0.00       2.25      12.20       0.10      12.30        3.78   521.64   0.735
  sub69                     16.73       0.00       0.00       2.37      12.50       0.14      12.64        2.95   482.20   0.755
  sub70                     16.73      12.90       0.00       8.98      17.16       1.09      18.25        4.18   460.88   0.616
  sub71                     16.73       0.00       0.00       1.27      12.46       0.07      12.53        2.96   345.19   0.749
  sub72                     16.73       0.00       0.00       1.14      10.39       0.03      10.43        2.12   185.81   0.623
  sub73                     16.73      17.77       0.00       9.78      19.72       1.38      21.10        4.96   482.28   0.612
  sub74                     16.73       0.00       0.00      12.48       3.71       0.07       3.78        1.51   261.10   0.226
  
  
  ******************
  Node Depth Summary
  ******************
  
  ---------------------------------------------------------------------------------
                                 Average  Maximum  Maximum  Time of Max    Reported
                                   Depth    Depth      HGL   Occurrence   Max Depth
  Node                 Type       Meters   Meters   Meters  days hr:min      Meters
  ---------------------------------------------------------------------------------
  WS02001211           JUNCTION     0.65     0.72     5.56     0  02:41        0.72
  WS02001212           JUNCTION     0.38     0.45     5.51     0  02:41        0.45
  WS02001213           JUNCTION     0.62     0.73     5.49     0  02:01        0.73
  WS02003069           JUNCTION     0.45     0.61     5.20     0  02:02        0.61
  WS02003072           JUNCTION     0.52     0.67     5.04     0  02:02        0.67
  WS02003073           JUNCTION     0.31     0.41     4.48     0  02:03        0.41
  WS02003060           JUNCTION     0.40     0.54     5.47     0  02:01        0.54
  WS02003066           JUNCTION     0.25     0.36     5.91     0  01:58        0.36
  WS02003059           JUNCTION     0.68     0.80     5.48     0  02:01        0.80
  WS02003067           JUNCTION     0.60     0.79     6.11     0  01:57        0.79
  WS02004401           JUNCTION     0.73     1.11     7.11     0  01:55        1.11
  WS02004402           JUNCTION     0.75     1.11     7.07     0  01:55        1.11
  WS02004403           JUNCTION     0.77     1.10     7.03     0  01:55        1.10
  WS02004404           JUNCTION     0.84     1.16     7.01     0  01:55        1.16
  WS02004406           JUNCTION     0.84     1.11     6.94     0  01:55        1.11
  WS02004409           JUNCTION     0.54     0.86     6.63     0  01:57        0.86
  WS02004410           JUNCTION     0.55     0.86     6.58     0  01:57        0.86
  WS02004411           JUNCTION     0.57     0.85     6.53     0  01:57        0.85
  WS02004412           JUNCTION     0.58     0.84     6.48     0  01:57        0.84
  WS02004413           JUNCTION     0.73     0.98     6.45     0  01:57        0.98
  WS02004405           JUNCTION     0.84     1.14     6.99     0  01:55        1.14
  WS02006109           JUNCTION     0.81     1.27     7.88     0  01:55        1.26
  WS02006110           JUNCTION     0.79     1.11     7.70     0  01:55        1.11
  WS02006111           JUNCTION     0.26     0.61     7.32     0  01:55        0.61
  WS02006112           JUNCTION     0.90     1.39     7.28     0  01:55        1.38
  WS02006113           JUNCTION     0.37     0.62     7.51     0  01:55        0.62
  WS02006115           JUNCTION     0.62     1.07     7.21     0  01:55        1.07
  WS02006116           JUNCTION     0.70     1.12     7.16     0  01:55        1.12
  WS02006230           JUNCTION     0.80     1.38     8.13     0  01:55        1.38
  WS02006231           JUNCTION     0.54     1.02     8.14     0  01:55        1.01
  WS02006232           JUNCTION     0.68     1.11     8.15     0  01:54        1.10
  WS02006234           JUNCTION     0.59     1.10     8.26     0  01:45        0.98
  WS02006235           JUNCTION     0.62     1.04     8.21     0  01:45        0.98
  WS02006238           JUNCTION     0.65     1.06     8.20     0  01:45        1.01
  WS02006240           JUNCTION     0.54     1.05     8.34     0  01:45        0.88
  WS02006242           JUNCTION     0.59     1.55     8.82     0  01:45        0.92
  WS02006243           JUNCTION     0.46     0.82     8.24     0  01:51        0.78
  WS02006245           JUNCTION     0.44     0.74     8.23     0  01:51        0.73
  WS02006247           JUNCTION     0.45     0.78     8.28     0  01:50        0.72
  WS02006248           JUNCTION     0.39     0.64     8.23     0  01:56        0.64
  WS02006249           JUNCTION     0.42     0.64     8.24     0  01:56        0.64
  WS02006239           JUNCTION     0.60     1.11     8.32     0  01:45        0.95
  WS02006251           JUNCTION     0.41     0.63     8.30     0  03:33        0.63
  WS02006252           JUNCTION     0.34     0.59     8.83     0  03:34        0.59
  WS02006253           JUNCTION     0.44     0.66     8.30     0  01:55        0.66
  WS02006256           JUNCTION     1.08     1.16     8.10     0  01:55        1.16
  WS02004138           JUNCTION     0.15     0.17     7.42     0  00:50        0.17
  WS02004407           JUNCTION     0.24     0.37     6.68     0  01:56        0.37
  WS02006228           JUNCTION     0.83     1.39     8.04     0  01:54        1.38
  WS02006229           JUNCTION     0.81     1.42     8.11     0  01:54        1.42
  WS02006280           JUNCTION     0.08     0.25     8.52     0  01:55        0.25
  WS02006284           JUNCTION     0.39     0.64     9.04     0  01:55        0.64
  WS02006287           JUNCTION     0.12     0.38     9.33     0  01:54        0.38
  WSF200               JUNCTION     0.24     0.39     5.62     0  01:59        0.39
  HS02004901           JUNCTION     0.14     0.36    10.18     0  01:52        0.36
  HS02004881           JUNCTION     0.01     0.05     9.08     0  01:54        0.05
  HS02004876           JUNCTION     0.05     0.16     9.19     0  01:55        0.16
  HS02004870           JUNCTION     0.02     0.09     9.38     0  01:55        0.09
  HS02004862           JUNCTION     0.03     0.11     9.49     0  01:55        0.11
  HS02004856           JUNCTION     0.08     0.15     9.58     0  01:55        0.15
  HS02004852           JUNCTION     0.02     0.07     9.59     0  01:55        0.07
  HS02004848           JUNCTION     0.01     0.07     9.67     0  01:55        0.07
  HS02004842           JUNCTION     0.34     0.40     9.67     0  01:55        0.40
  HS02004837           JUNCTION     0.03     0.09     9.67     0  01:55        0.09
  HS02004830           JUNCTION     0.05     0.10     9.57     0  01:56        0.10
  HS02004824           JUNCTION     0.03     0.12     9.53     0  01:55        0.12
  HS02004817           JUNCTION     0.46     0.69     9.53     0  01:55        0.69
  HS02004807           JUNCTION     0.14     0.36     9.53     0  01:55        0.36
  HS02004802           JUNCTION     0.18     0.39     9.52     0  01:55        0.39
  HS02004799           JUNCTION     0.14     0.45     9.66     0  01:53        0.45
  HS02004792           JUNCTION     0.05     0.20     9.73     0  01:52        0.20
  HS02004788           JUNCTION     0.04     0.15    10.05     0  01:53        0.15
  HS02004785           JUNCTION     0.06     0.23    10.14     0  01:52        0.23
  HS02004777           JUNCTION     0.16     0.37    10.17     0  01:52        0.37
  HS02004770           JUNCTION     0.14     0.35    10.18     0  01:52        0.35
  HS02004480           JUNCTION     0.10     0.37     9.61     0  01:53        0.37
  HS02004479           JUNCTION     0.14     0.41     9.61     0  01:53        0.41
  HS02004478           JUNCTION     0.08     0.27     9.50     0  01:54        0.27
  YS02001745           JUNCTION     0.78     0.95     8.47     0  02:53        0.95
  YS02001748           JUNCTION     1.19     1.40     8.48     0  01:50        1.38
  YS02001751           JUNCTION     1.37     1.86     8.74     0  01:48        1.58
  YS02001754           JUNCTION     1.62     1.88     8.49     0  01:48        1.84
  YS02001762           JUNCTION     1.82     2.05     8.45     0  02:40        2.04
  YS02001765           JUNCTION     1.78     1.99     8.44     0  02:39        1.98
  YS02001767           JUNCTION     1.74     1.95     8.44     0  02:40        1.94
  YS02001770           JUNCTION     1.74     1.93     8.42     0  02:40        1.93
  YS02001774           JUNCTION     1.80     1.99     8.41     0  02:40        1.98
  YS02001779           JUNCTION     1.55     1.68     8.37     0  01:47        1.68
  YS02001882           JUNCTION     0.71     1.69     8.40     0  01:57        1.63
  YS02001884           JUNCTION     0.81     1.77     8.39     0  01:57        1.73
  YS02001759           JUNCTION     1.86     2.08     8.45     0  02:39        2.08
  YS02001887           JUNCTION     0.88     1.83     8.36     0  01:57        1.80
  YS02001890           JUNCTION     0.91     1.81     8.32     0  01:57        1.81
  YS02001898           JUNCTION     0.68     1.58     8.31     0  01:57        1.56
  YS02001901           JUNCTION     0.80     1.68     8.29     0  01:57        1.67
  YS02001904           JUNCTION     0.77     1.64     8.27     0  01:57        1.63
  YS02001907           JUNCTION     1.10     1.96     8.25     0  01:57        1.96
  YS02001910           JUNCTION     0.89     1.95     8.46     0  01:57        1.83
  YS02001915           JUNCTION     0.69     1.86     8.58     0  01:57        1.68
  YS02001918           JUNCTION     0.43     1.81     8.88     0  01:57        1.46
  YS02001619           JUNCTION     1.33     1.61     8.54     0  01:47        1.48
  YS02001629           JUNCTION     1.69     1.85     8.40     0  01:47        1.85
  YS02001641           JUNCTION     1.78     1.94     8.37     0  03:42        1.93
  YS02001644           JUNCTION     1.78     1.92     8.35     0  01:51        1.92
  YS02001652           JUNCTION     1.64     2.16     8.76     0  02:09        2.03
  YS02001655           JUNCTION     1.40     2.20     9.05     0  02:22        1.94
  YS02001920           JUNCTION     0.53     1.89     8.90     0  01:59        1.60
  YS02001923           JUNCTION     0.35     1.77     9.03     0  01:58        1.44
  YS02001926           JUNCTION     0.37     1.90     9.35     0  01:58        1.29
  YS02001929           JUNCTION     0.23     1.40     9.10     0  01:59        1.07
  YS02001658           JUNCTION     1.13     2.26     9.40     0  02:12        1.66
  YS02001661           JUNCTION     0.89     2.46     9.86     0  02:22        1.27
  YS02001664           JUNCTION     0.40     0.57     8.49     0  03:37        0.56
  YS02001622           JUNCTION     1.35     1.62     8.52     0  01:48        1.50
  YS02001633           JUNCTION     1.78     1.96     8.41     0  01:50        1.94
  YS02001649           JUNCTION     1.83     2.05     8.44     0  01:54        2.05
  YS02001757           JUNCTION     1.95     2.18     8.44     0  02:52        2.18
  YS02001895           JUNCTION     0.67     1.57     8.32     0  01:57        1.56
  YS02001625           JUNCTION     1.64     1.78     8.38     0  01:46        1.78
  YS02163301           JUNCTION     1.72     1.90     8.41     0  01:50        1.88
  YS02163601           JUNCTION     1.83     1.99     8.39     0  01:50        1.99
  YS02164001           JUNCTION     1.76     1.92     8.38     0  07:50        1.92
  YS02001647           JUNCTION     1.62     1.80     8.41     0  01:54        1.79
  YSB1154              JUNCTION     0.28     0.56     9.62     0  01:53        0.56
  YSB6556              JUNCTION     0.17     0.44     9.61     0  01:53        0.44
  YSB1174              JUNCTION     0.23     0.50     9.61     0  01:53        0.50
  YSB1171              JUNCTION     0.43     0.71     9.61     0  01:53        0.71
  YS02006553           JUNCTION     1.10     2.17     8.46     0  01:57        1.96
  YS02006561           JUNCTION     0.43     1.92     8.58     0  01:57        1.08
  YS02006556           JUNCTION     1.07     2.39     8.70     0  01:57        1.92
  YS02006558           JUNCTION     1.11     2.49     8.76     0  01:57        1.97
  YS02001783           JUNCTION     0.70     2.29     8.43     0  01:57        1.48
  YS02001784           JUNCTION     0.71     2.22     8.29     0  01:57        1.41
  YS02001786           JUNCTION     0.65     2.23     8.26     0  01:57        1.26
  YS02001788           JUNCTION     0.59     2.28     8.26     0  01:57        1.13
  YS02001790           JUNCTION     0.74     1.96     7.60     0  01:57        1.29
  YS02001791           JUNCTION     0.75     2.34     7.81     0  01:56        1.27
  YS02001793           JUNCTION     1.09     2.00     6.83     0  01:56        1.80
  WS02004139           JUNCTION     0.59     0.66     5.57     0  02:40        0.66
  WSC                  OUTFALL      0.31     0.41     1.08     0  02:03        0.41
  3                    OUTFALL      0.10     0.16     6.16     0  01:55        0.16
  4                    OUTFALL      0.03     0.14     7.14     0  01:56        0.14
  5                    OUTFALL      0.00     0.00     5.00     0  00:00        0.00
  JK-storage           STORAGE      3.92     5.80     6.60     0  01:57        5.80
  CC-storage           STORAGE      1.17     1.44     8.44     0  02:51        1.44
  XR-storage           STORAGE      7.51     7.72     5.72     0  01:52        7.72
  
  
  *******************
  Node Inflow Summary
  *******************
  
  -------------------------------------------------------------------------------------------------
                                  Maximum  Maximum                  Lateral       Total        Flow
                                  Lateral    Total  Time of Max      Inflow      Inflow     Balance
                                   Inflow   Inflow   Occurrence      Volume      Volume       Error
  Node                 Type           LPS      LPS  days hr:min    10^6 ltr    10^6 ltr     Percent
  -------------------------------------------------------------------------------------------------
  WS02001211           JUNCTION      7.35   293.53     0  07:45       0.207         6.3       0.587
  WS02001212           JUNCTION      0.00   294.56     0  07:45           0        6.26       0.310
  WS02001213           JUNCTION      0.00   295.56     0  07:44           0        6.25       0.370
  WS02003069           JUNCTION      0.32  1017.90     0  02:01     0.00902        15.7       0.181
  WS02003072           JUNCTION      0.00  1017.88     0  02:02           0        15.7       0.223
  WS02003073           JUNCTION      1.82  1019.75     0  02:02      0.0514        15.7       0.250
  WS02003060           JUNCTION     16.53  1017.58     0  02:01       0.466        15.7       0.172
  WS02003066           JUNCTION      0.00   811.35     0  01:58           0        9.06       0.044
  WS02003059           JUNCTION      0.00   297.54     0  07:44           0        6.23       0.614
  WS02003067           JUNCTION      0.00   811.30     0  01:58           0        9.07       0.094
  WS02004401           JUNCTION      0.00   812.03     0  01:56           0        9.28       0.222
  WS02004402           JUNCTION      0.00   812.03     0  01:56           0        9.26       0.211
  WS02004403           JUNCTION      0.00   812.04     0  01:56           0        9.24       0.193
  WS02004404           JUNCTION      0.16   812.19     0  01:56     0.00457        9.23       0.146
  WS02004406           JUNCTION      0.00   812.23     0  01:56           0         9.2       0.353
  WS02004409           JUNCTION      0.00   812.20     0  01:56           0        9.16       0.160
  WS02004410           JUNCTION      0.00   811.65     0  01:56           0        9.15       0.181
  WS02004411           JUNCTION      0.00   811.40     0  01:57           0        9.13       0.186
  WS02004412           JUNCTION      0.00   811.29     0  01:57           0        9.11       0.203
  WS02004413           JUNCTION      0.00   811.27     0  01:57           0        9.09       0.304
  WS02004405           JUNCTION      0.04   812.23     0  01:56     0.00107        9.22       0.218
  WS02006109           JUNCTION      1.23   787.32     0  01:55      0.0347        9.31       0.226
  WS02006110           JUNCTION      0.00   787.26     0  01:55           0        9.29       0.214
  WS02006111           JUNCTION      0.00   786.89     0  01:55           0        9.26       0.048
  WS02006112           JUNCTION     26.81   812.06     0  01:55      0.0948        9.35       0.306
  WS02006113           JUNCTION      0.00   787.23     0  01:55           0        9.27       0.106
  WS02006115           JUNCTION      0.00   812.05     0  01:56           0        9.32       0.207
  WS02006116           JUNCTION      0.00   811.99     0  01:56           0         9.3       0.197
  WS02006230           JUNCTION     10.28   395.17     0  05:53        0.29        6.62       0.203
  WS02006231           JUNCTION      0.00   386.64     0  05:52           0        6.34       0.180
  WS02006232           JUNCTION      0.00   386.75     0  05:52           0        6.36       0.256
  WS02006234           JUNCTION      0.00   388.43     0  05:52           0        6.37       0.129
  WS02006235           JUNCTION      0.00   388.05     0  05:52           0        6.44       0.169
  WS02006238           JUNCTION      0.00   307.40     0  06:52           0        4.32       0.181
  WS02006240           JUNCTION      0.00   313.38     0  07:21           0        4.32       0.274
  WS02006242           JUNCTION      0.00   324.09     0  07:21           0        4.32       0.334
  WS02006243           JUNCTION      0.00   332.78     0  07:21           0        4.31      -0.184
  WS02006245           JUNCTION      0.00   339.59     0  07:20           0        4.32       0.297
  WS02006247           JUNCTION      0.00   345.65     0  07:20           0        4.33       0.157
  WS02006248           JUNCTION      0.00   351.00     0  05:00           0        4.33       0.059
  WS02006249           JUNCTION      0.00   410.83     0  03:33           0        4.86       0.254
  WS02006239           JUNCTION      0.00   308.69     0  06:51           0        4.32       0.266
  WS02006251           JUNCTION      0.08   411.73     0  03:31     0.00217        4.91       0.172
  WS02006252           JUNCTION      0.00   400.00     0  03:30           0        4.33       0.010
  WS02006253           JUNCTION      3.66   142.87     0  01:54      0.0117       0.578       0.628
  WS02006256           JUNCTION      0.00   344.30     0  01:55           0        6.13       0.050
  WS02004138           JUNCTION      0.00   285.00     0  00:50           0        6.13       0.076
  WS02004407           JUNCTION      0.00   812.25     0  01:56           0        9.17       0.075
  WS02006228           JUNCTION      0.00   786.12     0  01:55           0        9.29       0.159
  WS02006229           JUNCTION      0.00   786.07     0  01:54           0        9.31       0.150
  WS02006280           JUNCTION      0.00   656.04     0  01:55           0         2.7       0.002
  WS02006284           JUNCTION      0.10   655.96     0  01:55      0.0027         2.7       0.039
  WS02006287           JUNCTION      0.00   655.81     0  01:54           0         2.7       0.027
  WSF200               JUNCTION      0.00   811.31     0  01:58           0        9.05       0.039
  HS02004901           JUNCTION     32.57    32.57     0  01:50       0.114       0.115       1.559
  HS02004881           JUNCTION     13.82   139.59     0  01:54      0.0479       0.529       0.079
  HS02004876           JUNCTION     24.51   126.37     0  01:54      0.0923       0.482       0.114
  HS02004870           JUNCTION     25.44   102.13     0  01:54      0.0907        0.39       0.028
  HS02004862           JUNCTION     23.11    77.53     0  01:55       0.099       0.299       0.058
  HS02004856           JUNCTION     19.02    54.51     0  01:55      0.0682       0.202       0.723
  HS02004852           JUNCTION      0.00    36.10     0  01:55           0       0.134       0.042
  HS02004848           JUNCTION     50.49    50.49     0  01:57       0.223       0.223       0.021
  HS02004842           JUNCTION      0.00    15.55     0  02:06           0       0.102      14.562
  HS02004837           JUNCTION     49.08    62.50     0  01:55       0.337       0.426       0.190
  HS02004830           JUNCTION      0.15    62.61     0  01:55     0.00423       0.416       0.298
  HS02004824           JUNCTION     60.06   122.20     0  01:58       0.286       0.702       0.077
  HS02004817           JUNCTION      0.60   124.03     0  01:59      0.0169       0.718       2.378
  HS02004807           JUNCTION     47.25   168.28     0  01:57       0.166       0.868       0.499
  HS02004802           JUNCTION      0.00   169.25     0  01:58           0       0.865       0.462
  HS02004799           JUNCTION     37.43   414.53     0  01:52       0.135        1.57       0.166
  HS02004792           JUNCTION    160.44   377.30     0  01:52       0.598        1.44       0.028
  HS02004788           JUNCTION     53.14   218.54     0  01:52        0.24       0.839       0.046
  HS02004785           JUNCTION      0.15   165.59     0  01:52     0.00423       0.601       0.083
  HS02004777           JUNCTION      0.03   165.80     0  01:51    0.000846       0.601       0.872
  HS02004770           JUNCTION    134.74   166.64     0  01:51        0.49       0.602       0.515
  HS02004480           JUNCTION      0.00   492.22     0  01:53           0        1.85       0.064
  HS02004479           JUNCTION      0.00    78.00     0  01:53           0       0.292       0.252
  HS02004478           JUNCTION      0.00   655.76     0  01:54           0         2.7       0.013
  YS02001745           JUNCTION    386.89   386.89     0  02:16        3.55        3.55       0.324
  YS02001748           JUNCTION      0.04   396.49     0  02:16     0.00127        3.54       0.652
  YS02001751           JUNCTION      0.01   396.15     0  02:16     0.00031        3.52       0.680
  YS02001754           JUNCTION      0.26   396.55     0  02:16     0.00733         3.5       0.702
  YS02001762           JUNCTION      0.00   437.18     0  02:04           0         2.3       0.918
  YS02001765           JUNCTION      0.00   437.40     0  02:04           0         2.3       1.063
  YS02001767           JUNCTION      0.54   437.38     0  02:04      0.0151        2.32       1.554
  YS02001770           JUNCTION    491.42   704.50     0  02:54        3.94         4.6       0.684
  YS02001774           JUNCTION      0.00   704.51     0  02:54           0        2.92       0.858
  YS02001779           JUNCTION      0.01   704.52     0  02:54    0.000141        2.89       0.533
  YS02001882           JUNCTION      0.00    23.69     0  01:50           0      0.0223      11.405
  YS02001884           JUNCTION      0.00    48.43     0  01:50           0      0.0574      12.598
  YS02001759           JUNCTION    476.91   872.31     0  02:04        3.62        5.23       0.437
  YS02001887           JUNCTION    605.93   606.07     0  02:15        4.13        4.16       0.216
  YS02001890           JUNCTION      0.00   606.19     0  02:15           0        4.11       0.232
  YS02001898           JUNCTION      0.00   520.92     0  01:58           0           4       0.086
  YS02001901           JUNCTION      0.00   520.88     0  01:58           0           4       0.175
  YS02001904           JUNCTION      0.00   520.61     0  01:58           0        3.99       0.162
  YS02001907           JUNCTION      0.00  1186.24     0  01:59           0        9.13       0.266
  YS02001910           JUNCTION      0.00   669.65     0  01:59           0        5.15       0.244
  YS02001915           JUNCTION    345.21   669.51     0  01:59        2.96         5.2       0.117
  YS02001918           JUNCTION      0.00   391.59     0  01:59           0        2.27       0.068
  YS02001619           JUNCTION    336.52   336.52     0  02:16        2.95        2.95       0.411
  YS02001629           JUNCTION      0.00   232.00     0  01:47           0        1.44       2.005
  YS02001641           JUNCTION      0.00   417.42     0  01:51           0        4.86       0.431
  YS02001644           JUNCTION    367.62  1524.14     0  02:54        3.42        12.4       0.209
  YS02001652           JUNCTION      0.00   475.65     0  02:15           0        3.05       0.749
  YS02001655           JUNCTION      0.15   475.27     0  02:15     0.00434        3.07       0.834
  YS02001920           JUNCTION      2.87   391.53     0  01:59      0.0809        2.25       0.137
  YS02001923           JUNCTION      0.04   316.71     0  02:00     0.00106        2.15       0.045
  YS02001926           JUNCTION      0.05   280.14     0  01:58     0.00147        2.14       0.149
  YS02001929           JUNCTION    185.81   196.63     0  01:58        2.12        2.13       0.028
  YS02001658           JUNCTION      0.00   505.74     0  02:11           0        3.09       0.767
  YS02001661           JUNCTION      0.00   769.64     0  02:05           0        3.76      -0.060
  YS02001664           JUNCTION    437.54   437.54     0  02:16         3.1        3.77       0.184
  YS02001622           JUNCTION      0.00   336.69     0  02:16           0        2.94       1.090
  YS02001633           JUNCTION    373.18   416.98     0  01:51        3.53        4.92       0.650
  YS02001649           JUNCTION      0.00   978.27     0  02:00           0        6.68       0.552
  YS02001757           JUNCTION      0.00  2139.05     0  02:03           0        10.5       0.883
  YS02001895           JUNCTION      0.00   520.93     0  01:58           0           4       0.131
  YS02001625           JUNCTION      0.00   336.63     0  02:16           0        2.91       1.364
  YS02163301           JUNCTION      0.00   228.17     0  01:48           0        1.44       1.680
  YS02163601           JUNCTION      0.11   416.98     0  01:51      0.0031        4.87       0.615
  YS02164001           JUNCTION      0.00   416.97     0  01:51           0        4.85       0.409
  YS02001647           JUNCTION      0.00   800.47     0  02:54           0        5.64       0.502
  YSB1154              JUNCTION     43.61    43.61     0  01:53       0.163       0.164       0.888
  YSB6556              JUNCTION      0.00    43.64     0  01:53           0       0.165       0.764
  YSB1174              JUNCTION     35.87    35.87     0  01:50        0.12        0.12       1.078
  YSB1171              JUNCTION      0.00    78.02     0  01:52           0       0.291       2.227
  YS02006553           JUNCTION      0.00   682.65     0  03:22           0        7.14       0.219
  YS02006561           JUNCTION      0.00  1095.41     0  01:56           0        10.9       0.006
  YS02006556           JUNCTION      0.00   682.66     0  03:22           0        7.15       0.159
  YS02006558           JUNCTION    522.52  1095.73     0  01:57        3.81        10.9       0.049
  YS02001783           JUNCTION      0.00  1080.09     0  01:57           0        10.9       0.025
  YS02001784           JUNCTION      1.06  1081.06     0  01:57      0.0299        10.9       0.037
  YS02001786           JUNCTION      0.06  1080.99     0  01:57     0.00159        10.9       0.034
  YS02001788           JUNCTION      0.07  1075.06     0  01:57       0.002        10.9       0.017
  YS02001790           JUNCTION      0.15  1050.88     0  01:56     0.00437        10.9       0.026
  YS02001791           JUNCTION      0.00  1101.49     0  01:56           0        10.9       0.008
  YS02001793           JUNCTION      0.00  1002.46     0  01:55           0        10.9       0.003
  WS02004139           JUNCTION      0.32   285.35     0  00:50     0.00905        6.13       0.616
  WSC                  OUTFALL       0.00  1019.82     0  02:03           0        15.6       0.000
  3                    OUTFALL       0.00   344.33     0  01:55           0        3.98       0.000
  4                    OUTFALL       0.00   179.65     0  01:56           0       0.519       0.000
  5                    OUTFALL       0.00     0.00     0  00:00           0           0       0.000 ltr
  JK-storage           STORAGE       0.00   997.94     0  01:57           0        11.1      -0.250
  CC-storage           STORAGE       0.00  2139.18     0  02:03           0        8.15       0.797
  XR-storage           STORAGE     844.69   844.69     0  03:01        12.1        12.7      -0.000
  
  
  **********************
  Node Surcharge Summary
  **********************
  
  Surcharging occurs when water rises above the top of the highest conduit.
  ---------------------------------------------------------------------
                                               Max. Height   Min. Depth
                                   Hours       Above Crown    Below Rim
  Node                 Type      Surcharged         Meters       Meters
  ---------------------------------------------------------------------
  WS02004401           JUNCTION        0.56          0.113        1.547
  WS02004402           JUNCTION        0.60          0.115        1.625
  WS02004403           JUNCTION        0.61          0.104        1.926
  WS02004404           JUNCTION        0.82          0.157        2.623
  WS02004406           JUNCTION        0.72          0.106        2.344
  WS02004405           JUNCTION        0.77          0.137        2.663
  WS02006109           JUNCTION        2.73          0.445        1.375
  WS02006110           JUNCTION        1.03          0.203        1.647
  WS02006112           JUNCTION        1.28          0.393        1.287
  WS02006115           JUNCTION        0.32          0.057        2.193
  WS02006116           JUNCTION        0.38          0.063        2.227
  WS02006230           JUNCTION        0.79          0.304        1.266
  WS02006231           JUNCTION        0.84          0.308        1.222
  WS02006232           JUNCTION        2.67          0.410        1.070
  WS02006234           JUNCTION        0.88          0.381        0.859
  WS02006235           JUNCTION        1.52          0.333        0.957
  WS02006238           JUNCTION        1.99          0.335        1.095
  WS02006240           JUNCTION        0.80          0.340        1.050
  WS02006242           JUNCTION        1.32          0.820        0.000
  WS02006243           JUNCTION        0.57          0.114        0.656
  WS02006245           JUNCTION        0.22          0.031        0.819
  WS02006247           JUNCTION        0.18          0.073        0.687
  WS02006239           JUNCTION        1.06          0.367        0.923
  WS02006252           JUNCTION        1.63          0.193        0.907
  WS02006228           JUNCTION        2.60          0.557        1.643
  YS02001748           JUNCTION        5.99          0.320        0.870
  YS02001751           JUNCTION        6.02          0.861        0.339
  YS02001754           JUNCTION        6.04          0.833        0.317
  YS02001762           JUNCTION        6.09          1.046        0.104
  YS02001765           JUNCTION        6.08          0.990        0.110
  YS02001767           JUNCTION        6.07          0.947        0.083
  YS02001770           JUNCTION        6.07          0.897        0.023
  YS02001774           JUNCTION        6.08          0.987        0.063
  YS02001779           JUNCTION        6.04          0.680        0.000
  YS02001882           JUNCTION        1.76          0.687        0.143
  YS02001884           JUNCTION        1.79          0.713        0.157
  YS02001759           JUNCTION        6.09          1.083        0.127
  YS02001887           JUNCTION        1.87          0.776        0.174
  YS02001890           JUNCTION        1.90          0.760        0.000
  YS02001898           JUNCTION        1.71          0.548        0.192
  YS02001901           JUNCTION        1.84          0.684        0.186
  YS02001904           JUNCTION        1.82          0.640        0.210
  YS02001907           JUNCTION        2.25          0.950        0.000
  YS02001910           JUNCTION        1.94          0.953        0.147
  YS02001915           JUNCTION        1.75          0.865        0.135
  YS02001918           JUNCTION        1.51          0.810        0.000
  YS02001619           JUNCTION        6.02          0.610        0.000
  YS02001629           JUNCTION        6.02          0.470        0.000
  YS02001641           JUNCTION        6.08          0.936        0.164
  YS02001644           JUNCTION        6.08          0.920        0.000
  YS02001652           JUNCTION        6.05          1.130        0.000
  YS02001655           JUNCTION        6.02          1.200        0.000
  YS02001920           JUNCTION        1.55          0.892        0.248
  YS02001923           JUNCTION        0.01          0.559        0.261
  YS02001926           JUNCTION        0.01          0.900        0.000
  YS02001929           JUNCTION        0.01          0.404        0.376
  YS02001658           JUNCTION        5.99          1.262        0.038
  YS02001661           JUNCTION        0.24          1.390        0.000
  YS02001622           JUNCTION        6.02          0.620        0.000
  YS02001633           JUNCTION        6.08          0.938        0.122
  YS02001649           JUNCTION        6.08          1.050        0.000
  YS02001757           JUNCTION        6.12          1.181        0.029
  YS02001895           JUNCTION        1.73          0.574        0.176
  YS02001625           JUNCTION        6.05          0.780        0.000
  YS02163301           JUNCTION        6.07          0.896        0.134
  YS02163601           JUNCTION        6.09          0.988        0.092
  YS02164001           JUNCTION        6.08          0.921        0.179
  YS02001647           JUNCTION        6.05          0.805        0.095
  YS02006553           JUNCTION        2.32          1.174        0.016
  YS02006561           JUNCTION        1.61          1.123        0.027
  YS02006556           JUNCTION        2.11          1.349        0.001
  YS02006558           JUNCTION        2.09          1.393        0.007
  YS02001783           JUNCTION        2.13          1.491        0.109
  YS02001784           JUNCTION        2.13          1.422        0.068
  YS02001786           JUNCTION        2.06          1.430        0.000
  YS02001788           JUNCTION        2.05          1.480        0.000
  YS02001790           JUNCTION        3.47          1.157        0.000
  YS02001791           JUNCTION        3.60          1.544        0.376
  YS02001793           JUNCTION        3.79          1.001        1.599
  
  
  *********************
  Node Flooding Summary
  *********************
  
  Flooding refers to all water that overflows a node, whether it ponds or not.
  --------------------------------------------------------------------------
                                                             Total   Maximum
                                 Maximum   Time of Max       Flood    Ponded
                        Hours       Rate    Occurrence      Volume     Depth
  Node                 Flooded       LPS   days hr:min    10^6 ltr    Meters
  --------------------------------------------------------------------------
  WS02006242              0.01     80.32      0  01:45       0.000     0.000
  YS02001779              3.49    704.52      0  02:54       2.873     0.000
  YS02001890              0.56     89.68      0  02:15       0.100     0.000
  YS02001907              1.38    667.65      0  01:59       1.976     0.000
  YS02001918              0.01     69.38      0  01:57       0.000     0.000
  YS02001619              0.01     59.05      0  01:48       0.000     0.000
  YS02001629              0.01    180.78      0  01:47       0.001     0.000
  YS02001644              5.49   1524.14      0  02:54      10.926     0.000
  YS02001652              0.01      8.68      0  02:11       0.000     0.000
  YS02001655              0.01     14.39      0  02:22       0.000     0.000
  YS02001926              0.01    110.63      0  01:58       0.000     0.000
  YS02001661              0.01    118.13      0  02:22       0.000     0.000
  YS02001622              0.01     40.57      0  01:49       0.000     0.000
  YS02001649              0.07     35.56      0  02:21       0.003     0.000
  YS02001625              2.03    326.05      0  02:16       1.447     0.000
  YS02001786              0.01     19.68      0  01:57       0.000     0.000
  YS02001788              0.01    133.11      0  01:57       0.000     0.000
  YS02001790              0.01    143.46      0  01:57       0.000     0.000
  JK-storage              3.16    697.57      0  01:57       4.997     0.000
  XR-storage              5.37    654.68      0  03:01       5.707     0.000
  
  
  **********************
  Storage Volume Summary
  **********************
  
  --------------------------------------------------------------------------------------------------
                         Average     Avg  Evap Exfil       Maximum     Max    Time of Max    Maximum
                          Volume    Pcnt  Pcnt  Pcnt        Volume    Pcnt     Occurrence    Outflow
  Storage Unit           1000 m3    Full  Loss  Loss       1000 m3    Full    days hr:min        LPS
  --------------------------------------------------------------------------------------------------
  JK-storage               0.197      68     0     0         0.291     100       0  01:57     421.27
  CC-storage               3.266      21     0     0         4.023      26       0  02:51     400.00
  XR-storage               0.901      97     0     0         0.926     100       0  01:52     285.00
  
  
  ***********************
  Outfall Loading Summary
  ***********************
  
  -----------------------------------------------------------
                         Flow       Avg       Max       Total
                         Freq      Flow      Flow      Volume
  Outfall Node           Pcnt       LPS       LPS    10^6 ltr
  -----------------------------------------------------------
  WSC                   99.99    622.59   1019.82      15.631
  3                     94.92    184.72    344.33       3.982
  4                     37.07     64.00    179.65       0.519
  5                      0.00      0.00      0.00       0.000
  -----------------------------------------------------------
  System                58.00    871.31   1516.41      20.132
  
  
  ********************
  Link Flow Summary
  ********************
  
  -----------------------------------------------------------------------------
                                 Maximum  Time of Max   Maximum    Max/    Max/
                                  |Flow|   Occurrence   |Veloc|    Full    Full
  Link                 Type          LPS  days hr:min     m/sec    Flow   Depth
  -----------------------------------------------------------------------------
  WS02003066WSF200     CONDUIT    811.31     0  01:58      3.02    0.14    0.29
  WS02006287WS02006284 CONDUIT    655.86     0  01:55      2.36    0.30    0.38
  WS02006284WS02006280 CONDUIT    656.04     0  01:55      2.59    0.27    0.36
  WS02006280WS02006229 CONDUIT    656.05     0  01:55      4.21    0.14    0.25
  WS02006229WS02006228 CONDUIT    786.12     0  01:55      1.56    2.60    1.00
  WS02006256WS02006235 CONDUIT    166.25     0  00:01      2.58    1.76    1.00
  WS02006253WS02006251 CONDUIT    142.84     0  01:55      0.59    0.43    0.91
  WS02006252WS02006251 CONDUIT    400.34     0  03:30      3.19    1.47    1.00
  WS02006251WS02006249 CONDUIT    410.83     0  03:33      1.16    1.18    0.90
  WS02006249WS02006248 CONDUIT    351.00     0  05:00      1.16    1.92    0.90
  WS02006248WS02006247 CONDUIT    345.65     0  07:20      1.13    0.75    0.96
  WS02006247WS02006245 CONDUIT    339.59     0  07:20      1.09    2.69    1.00
  WS02006245WS02006243 CONDUIT    332.78     0  07:21      1.12    0.98    1.00
  WS02006243WS02006242 CONDUIT    324.09     0  07:21      0.96    0.69    1.00
  WS02006242WS02006240 CONDUIT    313.38     0  07:21      0.87    1.24    1.00
  WS02006240WS02006239 CONDUIT    308.69     0  06:51      0.87    0.97    1.00
  WS02006239WS02006238 CONDUIT    307.40     0  06:52      0.80    0.98    1.00
  WS02006238WS02006235 CONDUIT    307.47     0  06:52      1.25    0.69    1.00
  WS02006235WS02006234 CONDUIT    388.43     0  05:52      1.04    4.10    1.00
  WS02006234WS02006232 CONDUIT    386.75     0  05:52      1.13    0.78    1.00
  WS02006232WS02006231 CONDUIT    386.64     0  05:52      1.06    0.81    1.00
  WS02006231WS02006230 CONDUIT    384.89     0  05:53      1.36    5.84    1.00
  WS02006230WS02006229 CONDUIT    394.78     0  05:53      1.03    8.79    1.00
  WS02006228WS02006109 CONDUIT    786.09     0  01:55      1.56    3.43    1.00
  WS02006116WS02004401 CONDUIT    812.03     0  01:56      1.03    1.12    1.00
  WS02006115WS02006116 CONDUIT    811.99     0  01:56      1.03    1.04    1.00
  WS02006113WS02006111 CONDUIT    786.89     0  01:55      2.66    0.94    0.77
  WS02006112WS02006115 CONDUIT    812.05     0  01:56      1.03    0.48    1.00
  WS02006111WS02006112 CONDUIT    787.27     0  01:56      1.79    0.37    0.88
  WS02006110WS02006113 CONDUIT    787.23     0  01:55      1.69    0.72    0.88
  WS02006109WS02006110 CONDUIT    787.26     0  01:55      1.57    1.51    1.00
  WS02004411WS02004412 CONDUIT    811.29     0  01:57      1.15    1.15    0.84
  WS02004401WS02004402 CONDUIT    812.03     0  01:56      1.03    0.97    1.00
  WS02004413WS02003067 CONDUIT    811.30     0  01:58      1.40    0.35    0.69
  WS02004412WS02004413 CONDUIT    811.27     0  01:57      1.08    0.54    0.91
  WS02004410WS02004411 CONDUIT    811.40     0  01:57      1.14    1.11    0.85
  WS02004409WS02004410 CONDUIT    811.65     0  01:56      1.13    1.05    0.86
  WS02004407WS02004409 CONDUIT    812.20     0  01:56      1.67    0.29    0.61
  WS02004406WS02004407 CONDUIT    812.25     0  01:56      1.42    0.36    0.68
  WS02004405WS02004406 CONDUIT    812.23     0  01:56      1.03    1.60    1.00
  WS02004404WS02004405 CONDUIT    812.19     0  01:56      1.03    7.96    1.00
  WS02004403WS02004404 CONDUIT    812.03     0  01:56      1.03    0.59    1.00
  WS02004402WS02004403 CONDUIT    812.04     0  01:56      1.03    1.17    1.00
  WS02004139WS02001211 CONDUIT    286.18     0  07:45      0.69    0.36    0.53
  WS02004138WS02004139 CONDUIT    285.03     0  00:50      2.94    0.06    0.39
  WS02003067WS02003066 CONDUIT    811.35     0  01:58      1.52    0.26    0.48
  WS02001213WS02003059 CONDUIT    297.54     0  07:44      0.65    0.49    0.75
  WS02001212WS02001213 CONDUIT    295.56     0  07:44      1.19    0.46    0.42
  WS02001211WS02001212 CONDUIT    294.56     0  07:45      0.67    0.23    0.58
  WS02003072WS02003073 CONDUIT   1017.93     0  02:02      1.78    2.20    0.51
  WS02003069WS02003072 CONDUIT   1017.88     0  02:02      1.66    0.49    0.53
  WS02003060WS02003069 CONDUIT   1017.58     0  02:01      1.90    0.40    0.48
  WS02003059WS02003060 CONDUIT    300.33     0  07:44      0.82    0.20    0.67
  HS02004901HS02004770 CONDUIT     31.96     0  01:52      0.09    0.12    0.51
  HS02004876HS02004881 CONDUIT    126.38     0  01:55      1.20    1.34    0.15
  HS02004870HS02004876 CONDUIT    102.10     0  01:55      0.82    0.07    0.18
  HS02004842HS02004848 CONDUIT     15.55     0  02:06      0.07    0.01    0.33
  HS02004837HS02004842 CONDUIT     15.96     0  02:07      0.41    0.01    0.35
  HS02004830HS02004837 CONDUIT     62.46     0  01:55      0.66    0.06    0.14
  HS02004824HS02004830 CONDUIT     62.57     0  01:56      0.62    0.08    0.16
  HS02004817HS02004824 CONDUIT    123.43     0  01:59      0.31    0.06    0.58
  HS02004770HS02004777 CONDUIT    165.77     0  01:51      0.46    0.30    0.52
  HS02004799HS02004480 CONDUIT    414.30     0  01:53      1.02    0.52    0.58
  HS02004792HS02004799 CONDUIT    377.20     0  01:52      1.15    0.23    0.47
  HS02004788HS02004792 CONDUIT    218.44     0  01:53      1.24    0.14    0.25
  HS02004785HS02004788 CONDUIT    165.54     0  01:53      0.86    1.25    0.27
  HS02004777HS02004785 CONDUIT    165.44     0  01:52      0.54    0.20    0.44
  HS02004480HS02004478 CONDUIT    492.13     0  01:53      1.52    2.07    0.46
  HS02004479HS02004480 CONDUIT     78.30     0  01:54      0.27    0.08    0.55
  HS02004862HS02004870 CONDUIT     77.52     0  01:55      0.79    0.08    0.14
  HS02004848HS02004852 CONDUIT     36.10     0  01:55      0.52    0.04    0.10
  HS02004856HS02004862 CONDUIT     54.46     0  01:55      0.59    0.05    0.13
  HS02004852HS02004856 CONDUIT     36.15     0  01:56      0.33    0.04    0.16
  HS02004802HS02004478 CONDUIT    170.22     0  01:58      0.53    0.15    0.47
  HS02004478WS02006287 CONDUIT    655.81     0  01:54      2.08    0.18    0.35
  HS02004817HS02004807 CONDUIT    125.36     0  01:59      0.24    0.07    0.75
  HS02004807HS02004802 CONDUIT    169.25     0  01:58      0.47    0.32    0.53
  YS02001759YS02001757 CONDUIT    872.44     0  02:05      1.11    0.62    1.00
  YS02001762YS02001759 CONDUIT    437.53     0  02:04      0.56    0.50    1.00
  YS02001765YS02001762 CONDUIT    437.18     0  02:04      0.56    0.41    1.00
  YS02001770YS02001767 CONDUIT    436.84     0  02:04      0.56    1.73    1.00
  YS02001774YS02001770 CONDUIT    704.51     0  02:54      0.90    0.45    1.00
  YS02001779YS02001774 CONDUIT    704.52     0  02:54      0.90    0.35    1.00
  YS02001649YS02001757 CONDUIT    978.43     0  02:00      1.25    0.59    1.00
  YS02001767YS02001765 CONDUIT    437.40     0  02:04      0.56    0.55    1.00
  YS02006561YS02001783 CONDUIT   1080.09     0  01:57      2.26    0.56    1.00
  YS02001783YS02001784 CONDUIT   1080.00     0  01:57      2.15    1.49    1.00
  YS02001784YS02001785 CONDUIT   1080.94     0  01:57      2.15    2.52    1.00
  YS02001788YS02001790 CONDUIT   1050.72     0  01:56      2.56    0.77    1.00
  YS02001790YS02001791 CONDUIT   1101.49     0  01:56      3.23    1.20    1.00
  YS02001791YS02001793 CONDUIT   1002.46     0  01:55      6.15    0.43    1.00
  YS02001910YS02001907 CONDUIT    669.61     0  01:59      0.85    0.38    1.00
  YS02001786YS02001788 CONDUIT   1074.99     0  01:57      2.34    2.07    1.00
  YS02001915YS02001910 CONDUIT    669.65     0  01:59      0.85    0.33    1.00
  YS02001918YS02001915 CONDUIT    391.66     0  01:59      0.50    0.22    1.00
  YS02001923YS02001920 CONDUIT    388.66     0  01:59      0.78    0.17    1.00
  YS02001926YS02001923 CONDUIT    316.67     0  02:00      0.87    0.45    1.00
  YS02001929YS02001926 CONDUIT    269.27     0  01:59      0.93    0.13    1.00
  YS02001920YS02001918 CONDUIT    391.59     0  01:59      0.75    0.38    1.00
  YS02001629YS02163301 CONDUIT    228.17     0  01:48      0.29    0.28    1.00
  YS02001619YS02001622 CONDUIT    336.69     0  02:16      0.76    0.50    1.00
  YS02001622YS02001625 CONDUIT    336.63     0  02:16      0.43    0.18    1.00
  YS02001625YS02001629 CONDUIT    211.27     0  01:47      0.31    0.10    1.00
  YS02163301YS02001633 CONDUIT    228.30     0  01:48      0.29    0.21    1.00
  YS02163601YS02164001 CONDUIT    416.97     0  01:51      0.53    0.37    1.00
  YS02164001YS02001641 CONDUIT    417.42     0  01:51      0.53    0.57    1.00
  YS02001641YS02001644 CONDUIT    417.39     0  01:51      0.53    1.35    1.00
  YS02001647YS02001649 CONDUIT    800.47     0  02:54      1.02    0.42    1.00
  YS02006553YS02006556 CONDUIT    682.66     0  03:22      0.87    0.58    1.00
  YS02006556YS02006558 CONDUIT    682.71     0  03:22      0.87    0.54    1.00
  YSB6556YSB1171       CONDUIT     43.98     0  01:54      0.13    0.05    0.82
  YS02001907YS02006553 CONDUIT    682.65     0  03:22      0.76    0.80    1.00
  YS02006558YS02006561 CONDUIT   1095.41     0  01:56      3.87    2.42    1.00
  YS02001633YS02163601 CONDUIT    416.87     0  01:51      0.53    0.44    1.00
  YS02001644YS02001647 CONDUIT    800.51     0  02:54      1.02    0.47    1.00
  YS02001745YS02001748 CONDUIT    396.45     0  02:16      1.73    0.15    0.98
  YS02001748YS02001751 CONDUIT    396.14     0  02:16      1.25    0.20    1.00
  YS02001751YS02001754 CONDUIT    396.29     0  02:16      1.03    0.19    1.00
  YS02001754YS02001757 CONDUIT    396.71     0  02:16      0.51    0.16    1.00
  YS02001882YS02001884 CONDUIT     23.69     0  01:50      0.12    0.03    1.00
  YS02001884YS02001887 CONDUIT     48.43     0  01:50      0.09    0.06    1.00
  YS02001890YS02001895 CONDUIT    520.93     0  01:58      0.66    0.24    1.00
  YS02001895YS02001898 CONDUIT    520.92     0  01:58      0.66    0.90    1.00
  YS02001898YS02001901 CONDUIT    520.88     0  01:58      0.66    0.34    1.00
  YS02001901YS02001904 CONDUIT    520.61     0  01:58      0.66    0.81    1.00
  YS02001904YS02001907 CONDUIT    520.52     0  01:58      0.66    0.18    1.00
  YS02001887YS02001890 CONDUIT    606.19     0  02:15      0.77    1.04    1.00
  YS02001652YS02001649 CONDUIT    475.91     0  02:15      0.61    0.24    1.00
  YS02001655YS02001652 CONDUIT    475.65     0  02:15      1.09    0.23    1.00
  YS02001658YS02001655 CONDUIT    475.12     0  02:15      1.45    0.20    1.00
  YS02001661YS02001658 CONDUIT    505.74     0  02:11      1.85    0.20    1.00
  YS02001664YS02001661 CONDUIT    769.64     0  02:05      1.75    0.24    0.77
  YSB1154YSB6556       CONDUIT     43.64     0  01:53      0.17    0.08    0.72
  YSB1174YSB1171       CONDUIT     35.14     0  01:50      0.10    0.05    0.83
  YSB1171HS02004479    CONDUIT     78.00     0  01:53      0.54    0.05    0.67
  HS02004881HS02006253 CONDUIT    139.58     0  01:55      2.11    0.03    0.26
  YS02001793JiankangQianchi CONDUIT    997.94     0  01:57     13.01    0.08    1.00
  YS02001757CaochengTiaoxuchi CONDUIT   2139.18     0  02:03      3.75    0.94    1.00
  WSF200WS02003060     CONDUIT    810.94     0  01:58      2.06    0.18    0.39
  1                    CONDUIT   1019.82     0  02:03      3.34    0.36    0.41
  2                    CONDUIT    179.65     0  01:56      5.68    0.43    0.46
  3                    CONDUIT    344.33     0  01:55      9.02    0.55    0.53
  4                    CONDUIT      0.00     0  00:00      0.00    0.00    0.00
  CC-Pump-1            PUMP       200.00     0  03:30              1.00
  CC-Pump-2            PUMP       200.00     0  02:00              1.00
  JK-Pump-1            PUMP         0.00     0  00:00              0.00
  JK-Pump-2            PUMP       300.00     0  00:00              1.00
  XR-Pump-1            PUMP        95.00     0  00:20              1.00
  XR-Pump-2            PUMP        95.00     0  00:00              1.00
  XR-Pump-3            PUMP         0.00     0  00:00              0.00
  XR-Pump-4            PUMP        95.00     0  00:00              1.00
  
  
  ***************************
  Flow Classification Summary
  ***************************
  
  -------------------------------------------------------------------------------------
                      Adjusted    ---------- Fraction of Time in Flow Class ---------- 
                       /Actual         Up    Down  Sub   Sup   Up    Down  Norm  Inlet 
  Conduit               Length    Dry  Dry   Dry   Crit  Crit  Crit  Crit  Ltd   Ctrl  
  -------------------------------------------------------------------------------------
  WS02003066WSF200        1.00   0.06  0.00  0.00  0.00  0.94  0.00  0.00  0.60  0.00
  WS02006287WS02006284    1.00   0.04  0.01  0.00  0.58  0.38  0.00  0.00  0.65  0.00
  WS02006284WS02006280    1.00   0.04  0.00  0.00  0.00  0.00  0.00  0.96  0.00  0.00
  WS02006280WS02006229    1.00   0.04  0.00  0.00  0.00  0.00  0.00  0.96  0.00  0.00
  WS02006229WS02006228    1.00   0.00  0.00  0.00  0.99  0.00  0.00  0.01  0.00  0.00
  WS02006256WS02006235    1.00   0.00  0.00  0.00  1.00  0.00  0.00  0.00  0.00  0.00
  WS02006253WS02006251    1.00   0.03  0.01  0.00  0.96  0.00  0.00  0.00  0.00  0.00
  WS02006252WS02006251    1.00   0.06  0.00  0.00  0.00  0.00  0.94  0.00  0.00  0.00
  WS02006251WS02006249    1.00   0.00  0.00  0.00  1.00  0.00  0.00  0.00  0.19  0.00
  WS02006249WS02006248    1.00   0.00  0.02  0.00  0.92  0.00  0.06  0.00  0.00  0.00
  WS02006248WS02006247    1.00   0.02  0.00  0.00  0.98  0.00  0.00  0.00  0.07  0.00
  WS02006247WS02006245    1.00   0.02  0.00  0.00  0.98  0.00  0.00  0.00  0.00  0.00
  WS02006245WS02006243    1.00   0.01  0.00  0.00  0.96  0.00  0.00  0.03  0.01  0.00
  WS02006243WS02006242    1.00   0.01  0.00  0.00  0.99  0.00  0.00  0.00  0.17  0.00
  WS02006242WS02006240    1.00   0.00  0.00  0.00  1.00  0.00  0.00  0.00  0.00  0.00
  WS02006240WS02006239    1.00   0.00  0.00  0.00  0.97  0.00  0.00  0.03  0.01  0.00
  WS02006239WS02006238    1.00   0.00  0.00  0.00  1.00  0.00  0.00  0.00  0.01  0.00
  WS02006238WS02006235    1.00   0.00  0.00  0.00  1.00  0.00  0.00  0.00  0.00  0.00
  WS02006235WS02006234    1.00   0.00  0.00  0.00  0.97  0.00  0.03  0.00  0.00  0.00
  WS02006234WS02006232    1.00   0.00  0.00  0.00  1.00  0.00  0.00  0.00  0.08  0.00
  WS02006232WS02006231    1.00   0.00  0.00  0.00  0.99  0.00  0.00  0.00  0.00  0.00
  WS02006231WS02006230    1.00   0.00  0.00  0.00  0.67  0.00  0.33  0.00  0.00  0.00
  WS02006230WS02006229    1.00   0.00  0.00  0.00  0.99  0.00  0.00  0.01  0.01  0.00
  WS02006228WS02006109    1.00   0.00  0.00  0.00  1.00  0.00  0.00  0.00  0.00  0.00
  WS02006116WS02004401    1.00   0.02  0.00  0.00  0.98  0.00  0.00  0.00  0.00  0.00
  WS02006115WS02006116    1.00   0.02  0.00  0.00  0.97  0.00  0.00  0.01  0.00  0.00
  WS02006113WS02006111    1.00   0.02  0.00  0.00  0.07  0.91  0.00  0.00  0.11  0.00
  WS02006112WS02006115    1.00   0.02  0.00  0.00  0.98  0.00  0.00  0.00  0.00  0.00
  WS02006111WS02006112    1.00   0.02  0.00  0.00  0.98  0.00  0.00  0.00  0.88  0.00
  WS02006110WS02006113    1.00   0.01  0.01  0.00  0.98  0.00  0.00  0.00  0.00  0.00
  WS02006109WS02006110    1.00   0.00  0.01  0.00  0.98  0.00  0.01  0.00  0.00  0.00
  WS02004411WS02004412    1.00   0.04  0.00  0.00  0.96  0.00  0.00  0.00  0.00  0.00
  WS02004401WS02004402    1.00   0.02  0.00  0.00  0.98  0.00  0.00  0.00  0.00  0.00
  WS02004413WS02003067    1.00   0.04  0.01  0.00  0.00  0.00  0.95  0.00  0.00  0.00
  WS02004412WS02004413    1.00   0.04  0.00  0.00  0.96  0.00  0.00  0.00  0.03  0.00
  WS02004410WS02004411    1.00   0.04  0.00  0.00  0.96  0.00  0.00  0.00  0.04  0.00
  WS02004409WS02004410    1.00   0.04  0.00  0.00  0.96  0.00  0.00  0.00  0.02  0.00
  WS02004407WS02004409    1.00   0.04  0.00  0.00  0.96  0.00  0.00  0.00  0.89  0.00
  WS02004406WS02004407    1.00   0.00  0.03  0.00  0.96  0.00  0.00  0.00  0.00  0.00
  WS02004405WS02004406    1.00   0.00  0.00  0.00  1.00  0.00  0.00  0.00  0.01  0.00
  WS02004404WS02004405    1.00   0.00  0.00  0.00  1.00  0.00  0.00  0.00  0.00  0.00
  WS02004403WS02004404    1.00   0.00  0.02  0.00  0.98  0.00  0.00  0.00  0.01  0.00
  WS02004402WS02004403    1.00   0.02  0.00  0.00  0.98  0.00  0.00  0.00  0.00  0.00
  WS02004139WS02001211    1.00   0.00  0.00  0.00  1.00  0.00  0.00  0.00  0.00  0.00
  WS02004138WS02004139    1.00   0.00  0.00  0.00  0.99  0.01  0.00  0.00  1.00  0.00
  WS02003067WS02003066    1.00   0.05  0.01  0.00  0.94  0.00  0.00  0.00  0.00  0.00
  WS02001213WS02003059    1.00   0.00  0.00  0.00  0.99  0.00  0.00  0.00  0.00  0.00
  WS02001212WS02001213    1.00   0.00  0.00  0.00  0.89  0.00  0.10  0.00  0.00  0.00
  WS02001211WS02001212    1.00   0.00  0.00  0.00  1.00  0.00  0.00  0.00  0.00  0.00
  WS02003072WS02003073    1.00   0.00  0.00  0.00  0.00  0.00  0.00  1.00  0.00  0.00
  WS02003069WS02003072    1.00   0.00  0.00  0.00  0.99  0.01  0.00  0.00  0.19  0.00
  WS02003060WS02003069    1.00   0.00  0.00  0.00  0.98  0.02  0.00  0.00  0.12  0.00
  WS02003059WS02003060    1.00   0.00  0.00  0.00  1.00  0.00  0.00  0.00  0.01  0.00
  HS02004901HS02004770    1.00   0.04  0.00  0.00  0.96  0.00  0.00  0.00  0.00  0.00
  HS02004876HS02004881    1.00   0.02  0.00  0.00  0.84  0.14  0.00  0.00  0.00  0.00
  HS02004870HS02004876    1.00   0.01  0.00  0.00  0.99  0.00  0.00  0.00  0.95  0.00
  HS02004842HS02004848    1.00   0.00  0.04  0.00  0.96  0.00  0.00  0.00  0.57  0.00
  HS02004837HS02004842    1.00   0.00  0.00  0.00  0.99  0.01  0.00  0.00  0.11  0.00
  HS02004830HS02004837    1.00   0.00  0.00  0.00  1.00  0.00  0.00  0.00  0.99  0.00
  HS02004824HS02004830    1.00   0.00  0.00  0.00  1.00  0.00  0.00  0.00  0.03  0.00
  HS02004817HS02004824    1.00   0.00  0.00  0.00  1.00  0.00  0.00  0.00  0.94  0.00
  HS02004770HS02004777    1.00   0.00  0.04  0.00  0.96  0.00  0.00  0.00  0.03  0.00
  HS02004799HS02004480    1.00   0.00  0.02  0.00  0.95  0.00  0.02  0.00  0.00  0.00
  HS02004792HS02004799    1.00   0.00  0.00  0.00  0.99  0.01  0.00  0.00  0.98  0.00
  HS02004788HS02004792    1.00   0.00  0.00  0.00  0.99  0.01  0.00  0.00  0.98  0.00
  HS02004785HS02004788    1.00   0.00  0.00  0.00  1.00  0.00  0.00  0.00  0.00  0.00
  HS02004777HS02004785    1.00   0.00  0.00  0.00  1.00  0.00  0.00  0.00  0.13  0.00
  HS02004480HS02004478    1.00   0.04  0.00  0.00  0.64  0.00  0.00  0.32  0.00  0.00
  HS02004479HS02004480    1.00   0.03  0.00  0.00  0.97  0.00  0.00  0.00  0.12  0.00
  HS02004862HS02004870    1.00   0.00  0.00  0.00  1.00  0.00  0.00  0.00  0.04  0.00
  HS02004848HS02004852    1.00   0.04  0.00  0.00  0.96  0.00  0.00  0.00  0.78  0.00
  HS02004856HS02004862    1.00   0.00  0.05  0.00  0.95  0.00  0.00  0.00  0.82  0.00
  HS02004852HS02004856    1.00   0.04  0.00  0.00  0.96  0.00  0.00  0.00  0.77  0.00
  HS02004802HS02004478    1.00   0.04  0.00  0.00  0.96  0.00  0.00  0.00  0.03  0.00
  HS02004478WS02006287    1.00   0.05  0.00  0.00  0.70  0.25  0.00  0.00  0.62  0.00
  HS02004817HS02004807    1.00   0.00  0.04  0.00  0.96  0.00  0.00  0.00  0.01  0.00
  HS02004807HS02004802    1.00   0.04  0.00  0.00  0.96  0.00  0.00  0.00  0.00  0.00
  YS02001759YS02001757    1.00   0.00  0.00  0.00  1.00  0.00  0.00  0.00  0.16  0.00
  YS02001762YS02001759    1.00   0.00  0.00  0.00  1.00  0.00  0.00  0.00  0.03  0.00
  YS02001765YS02001762    1.00   0.00  0.00  0.00  1.00  0.00  0.00  0.00  0.14  0.00
  YS02001770YS02001767    1.00   0.00  0.00  0.00  1.00  0.00  0.00  0.00  0.00  0.00
  YS02001774YS02001770    1.00   0.00  0.04  0.00  0.96  0.00  0.00  0.00  0.03  0.00
  YS02001779YS02001774    1.00   0.00  0.00  0.00  1.00  0.00  0.00  0.00  0.18  0.00
  YS02001649YS02001757    1.00   0.00  0.00  0.00  1.00  0.00  0.00  0.00  0.16  0.00
  YS02001767YS02001765    1.00   0.00  0.00  0.00  1.00  0.00  0.00  0.00  0.00  0.00
  YS02006561YS02001783    1.00   0.05  0.00  0.00  0.57  0.38  0.00  0.00  0.51  0.00
  YS02001783YS02001784    1.00   0.00  0.05  0.00  0.95  0.00  0.00  0.00  0.00  0.00
  YS02001784YS02001785    1.00   0.00  0.00  0.00  1.00  0.00  0.00  0.00  0.17  0.00
  YS02001788YS02001790    1.00   0.00  0.00  0.00  0.64  0.36  0.00  0.00  0.44  0.00
  YS02001790YS02001791    1.00   0.00  0.00  0.00  0.61  0.39  0.00  0.00  0.29  0.00
  YS02001791YS02001793    1.00   0.00  0.00  0.00  0.63  0.37  0.00  0.00  0.02  0.00
  YS02001910YS02001907    1.00   0.00  0.00  0.00  0.98  0.00  0.00  0.02  0.12  0.00
  YS02001786YS02001788    1.00   0.00  0.00  0.00  0.63  0.37  0.00  0.00  0.00  0.00
  YS02001915YS02001910    1.00   0.00  0.00  0.00  0.99  0.01  0.00  0.00  0.16  0.00
  YS02001918YS02001915    1.00   0.00  0.01  0.00  0.98  0.01  0.00  0.00  0.52  0.00
  YS02001923YS02001920    1.00   0.00  0.00  0.00  1.00  0.00  0.00  0.00  0.74  0.00
  YS02001926YS02001923    1.00   0.00  0.03  0.00  0.28  0.00  0.69  0.00  0.00  0.00
  YS02001929YS02001926    1.00   0.00  0.04  0.00  0.96  0.00  0.00  0.00  0.66  0.00
  YS02001920YS02001918    1.00   0.00  0.01  0.00  0.99  0.00  0.00  0.00  0.00  0.00
  YS02001629YS02163301    1.00   0.04  0.00  0.00  0.95  0.00  0.00  0.00  0.00  0.00
  YS02001619YS02001622    1.00   0.04  0.00  0.00  0.96  0.00  0.00  0.00  0.00  0.00
  YS02001622YS02001625    1.00   0.04  0.00  0.00  0.96  0.00  0.00  0.00  0.05  0.00
  YS02001625YS02001629    1.00   0.04  0.01  0.00  0.94  0.00  0.01  0.00  0.00  0.00
  YS02163301YS02001633    1.00   0.00  0.04  0.00  0.96  0.00  0.00  0.00  0.00  0.00
  YS02163601YS02164001    1.00   0.00  0.03  0.00  0.97  0.00  0.00  0.00  0.00  0.00
  YS02164001YS02001641    1.00   0.01  0.02  0.00  0.97  0.00  0.00  0.00  0.06  0.00
  YS02001641YS02001644    1.00   0.00  0.01  0.00  0.99  0.00  0.00  0.00  0.00  0.00
  YS02001647YS02001649    1.00   0.00  0.05  0.00  0.95  0.00  0.00  0.00  0.01  0.00
  YS02006553YS02006556    1.00   0.01  0.00  0.00  0.99  0.00  0.00  0.00  0.03  0.00
  YS02006556YS02006558    1.00   0.00  0.00  0.00  1.00  0.00  0.00  0.00  0.00  0.00
  YSB6556YSB1171          1.00   0.03  0.01  0.00  0.96  0.00  0.00  0.00  0.00  0.00
  YS02001907YS02006553    1.00   0.00  0.02  0.00  0.98  0.00  0.00  0.00  0.00  0.00
  YS02006558YS02006561    1.00   0.05  0.00  0.00  0.31  0.64  0.00  0.00  0.42  0.00
  YS02001633YS02163601    1.00   0.00  0.01  0.00  0.99  0.00  0.00  0.00  0.15  0.00
  YS02001644YS02001647    1.00   0.00  0.05  0.00  0.95  0.00  0.00  0.00  0.00  0.00
  YS02001745YS02001748    1.00   0.00  0.00  0.00  0.92  0.00  0.00  0.07  0.01  0.00
  YS02001748YS02001751    1.00   0.00  0.00  0.00  0.98  0.02  0.00  0.00  0.14  0.00
  YS02001751YS02001754    1.00   0.00  0.00  0.00  0.95  0.00  0.00  0.05  0.01  0.00
  YS02001754YS02001757    1.00   0.00  0.00  0.00  0.99  0.01  0.00  0.00  0.18  0.00
  YS02001882YS02001884    1.00   0.04  0.00  0.00  0.95  0.00  0.00  0.00  0.00  0.00
  YS02001884YS02001887    1.00   0.03  0.01  0.00  0.96  0.00  0.00  0.00  0.00  0.00
  YS02001890YS02001895    1.00   0.00  0.04  0.00  0.95  0.00  0.00  0.00  0.00  0.00
  YS02001895YS02001898    1.00   0.05  0.00  0.00  0.95  0.00  0.01  0.00  0.00  0.00
  YS02001898YS02001901    1.00   0.05  0.00  0.00  0.95  0.00  0.00  0.00  0.01  0.00
  YS02001901YS02001904    1.00   0.05  0.00  0.00  0.95  0.00  0.00  0.00  0.00  0.00
  YS02001904YS02001907    1.00   0.00  0.04  0.00  0.95  0.00  0.00  0.00  0.00  0.00
  YS02001887YS02001890    1.00   0.00  0.00  0.00  0.98  0.00  0.02  0.00  0.00  0.00
  YS02001652YS02001649    1.00   0.00  0.00  0.00  1.00  0.00  0.00  0.00  0.16  0.00
  YS02001655YS02001652    1.00   0.00  0.00  0.00  0.95  0.00  0.00  0.05  0.01  0.00
  YS02001658YS02001655    1.00   0.00  0.04  0.00  0.94  0.02  0.00  0.00  0.02  0.00
  YS02001661YS02001658    1.00   0.04  0.00  0.00  0.92  0.03  0.00  0.00  0.00  0.00
  YS02001664YS02001661    1.00   0.04  0.00  0.00  0.93  0.03  0.00  0.00  0.10  0.00
  YSB1154YSB6556          1.00   0.04  0.00  0.00  0.96  0.00  0.00  0.00  0.02  0.00
  YSB1174YSB1171          1.00   0.03  0.01  0.00  0.97  0.00  0.00  0.00  0.00  0.00
  YSB1171HS02004479       1.00   0.03  0.00  0.00  0.97  0.00  0.00  0.00  0.11  0.00
  HS02004881HS02006253    1.00   0.03  0.00  0.00  0.73  0.02  0.00  0.22  0.60  0.00
  YS02001793JiankangQianchi    1.00   0.00  0.00  0.00  0.77  0.23  0.00  0.00  0.11  0.00
  YS02001757CaochengTiaoxuchi    1.00   0.00  0.06  0.00  0.89  0.05  0.00  0.00  0.00  0.00
  WSF200WS02003060        1.00   0.00  0.06  0.00  0.63  0.32  0.00  0.00  0.13  0.00
  1                       1.00   0.00  0.00  0.00  0.00  1.00  0.00  0.00  0.38  0.00
  2                       1.00   0.63  0.00  0.00  0.00  0.37  0.00  0.00  0.07  0.00
  3                       1.00   0.05  0.00  0.00  0.00  0.95  0.00  0.00  0.19  0.00
  4                       1.00   1.00  0.00  0.00  0.00  0.00  0.00  0.00  0.00  0.00
  
  
  *************************
  Conduit Surcharge Summary
  *************************
  
  ----------------------------------------------------------------------------
                                                           Hours        Hours 
                         --------- Hours Full --------   Above Full   Capacity
  Conduit                Both Ends  Upstream  Dnstream   Normal Flow   Limited
  ----------------------------------------------------------------------------
  WS02006229WS02006228        2.60      2.86      2.60      4.74         2.60
  WS02006256WS02006235        6.34      6.34      6.90      3.55         0.01
  WS02006252WS02006251        0.69      0.69      1.63      1.39         0.01
  WS02006251WS02006249        0.01      0.01      0.01      0.66         0.01
  WS02006249WS02006248        0.01      0.01      0.01      3.90         0.01
  WS02006248WS02006247        0.01      0.01      0.18      0.01         0.01
  WS02006247WS02006245        0.22      0.29      0.22      4.77         0.21
  WS02006245WS02006243        0.29      0.29      0.57      0.01         0.01
  WS02006243WS02006242        0.61      0.61      1.32      0.01         0.01
  WS02006242WS02006240        0.80      0.80      1.77      1.61         0.01
  WS02006240WS02006239        1.00      1.00      1.06      0.01         0.01
  WS02006239WS02006238        1.71      1.71      1.99      0.01         0.01
  WS02006238WS02006235        1.78      1.78      2.39      0.01         0.02
  WS02006235WS02006234        0.88      0.88      1.52      6.35         0.04
  WS02006234WS02006232        1.09      1.09      2.67      0.01         0.01
  WS02006232WS02006231        0.84      0.84      2.67      0.01         0.01
  WS02006231WS02006230        0.79      0.79      0.86      6.34         0.02
  WS02006230WS02006229        3.73      4.48      3.73      6.43         3.71
  WS02006228WS02006109        2.72      3.31      2.72      5.66         2.72
  WS02006116WS02004401        0.55      0.55      0.56      0.49         0.48
  WS02006115WS02006116        0.36      0.36      0.38      0.24         0.24
  WS02006112WS02006115        0.32      0.32      1.28      0.01         0.01
  WS02006111WS02006112        0.01      0.01      4.88      0.01         0.01
  WS02006110WS02006113        0.01      0.01      3.06      0.01         0.01
  WS02006109WS02006110        1.03      1.03      3.32      1.03         0.01
  WS02004411WS02004412        0.01      0.01      0.01      0.53         0.01
  WS02004401WS02004402        0.56      0.56      0.60      0.01         0.01
  WS02004410WS02004411        0.01      0.01      0.01      0.46         0.01
  WS02004409WS02004410        0.01      0.01      0.01      0.26         0.01
  WS02004406WS02004407        0.01      0.01      0.72      0.01         0.01
  WS02004405WS02004406        0.72      0.77      0.72      1.16         0.72
  WS02004404WS02004405        0.77      0.82      0.77      6.25         0.77
  WS02004403WS02004404        0.61      0.61      0.82      0.01         0.01
  WS02004402WS02004403        0.60      0.60      0.61      0.55         0.53
  WS02003072WS02003073        0.01      0.01      0.01      5.95         0.01
  HS02004876HS02004881        0.01      0.01      0.01      0.49         0.01
  HS02004785HS02004788        0.01      0.01      0.01      0.35         0.01
  HS02004480HS02004478        0.01      0.01      0.01      0.79         0.01
  YS02001759YS02001757        6.09      6.09      6.12      0.01         0.01
  YS02001762YS02001759        6.09      6.09      6.09      0.01         0.01
  YS02001765YS02001762        6.08      6.08      6.09      0.01         0.01
  YS02001770YS02001767        6.07      6.07      6.07      0.67         0.78
  YS02001774YS02001770        6.07      6.07      6.08      0.01         0.01
  YS02001779YS02001774        6.04      6.04      6.08      0.01         0.01
  YS02001649YS02001757        6.08      6.08      6.12      0.01         0.01
  YS02001767YS02001765        6.07      6.07      6.08      0.01         0.01
  YS02006561YS02001783        1.61      1.61      2.13      0.01         0.01
  YS02001783YS02001784        2.12      2.13      2.13      2.02         1.92
  YS02001784YS02001785        2.06      2.13      2.06      2.73         2.06
  YS02001788YS02001790        2.05      2.05      3.47      0.01         0.01
  YS02001790YS02001791        3.47      3.47      3.60      1.53         1.47
  YS02001791YS02001793        3.60      3.60      3.86      0.01         0.01
  YS02001910YS02001907        1.94      1.94      2.25      0.01         0.01
  YS02001786YS02001788        2.05      2.06      2.05      2.42         2.04
  YS02001915YS02001910        1.75      1.75      1.94      0.01         0.01
  YS02001918YS02001915        1.51      1.51      1.75      0.01         0.01
  YS02001923YS02001920        1.32      1.32      1.55      0.01         0.01
  YS02001926YS02001923        0.01      0.01      0.01      0.01         0.01
  YS02001929YS02001926        0.01      0.01      0.01      0.01         0.01
  YS02001920YS02001918        1.51      1.51      1.55      0.01         0.01
  YS02001629YS02163301        6.06      6.06      6.07      0.01         0.01
  YS02001619YS02001622        6.02      6.02      6.02      0.01         0.01
  YS02001622YS02001625        6.02      6.02      6.05      0.01         0.01
  YS02001625YS02001629        6.02      6.02      6.05      0.01         0.01
  YS02163301YS02001633        6.07      6.07      6.08      0.01         0.01
  YS02163601YS02164001        6.08      6.08      6.09      0.01         0.01
  YS02164001YS02001641        6.08      6.08      6.08      0.01         0.02
  YS02001641YS02001644        6.08      6.08      6.08      2.21         2.15
  YS02001647YS02001649        6.05      6.05      6.08      0.01         0.01
  YS02006553YS02006556        2.11      2.11      2.32      0.01         0.01
  YS02006556YS02006558        2.18      2.18      2.38      0.01         0.01
  YSB6556YSB1171              0.01      0.01      0.14      0.01         0.01
  YS02001907YS02006553        2.76      2.76      2.95      0.01         0.01
  YS02006558YS02006561        1.78      2.09      1.78      2.63         1.78
  YS02001633YS02163601        6.08      6.08      6.09      0.01         0.01
  YS02001644YS02001647        6.05      6.05      6.08      0.01         0.01
  YS02001745YS02001748        0.01      0.01      5.99      0.01         0.01
  YS02001748YS02001751        6.00      6.00      6.02      0.01         0.01
  YS02001751YS02001754        6.02      6.02      6.04      0.01         0.01
  YS02001754YS02001757        6.05      6.05      6.12      0.01         0.01
  YS02001882YS02001884        1.76      1.76      1.79      0.01         0.01
  YS02001884YS02001887        1.84      1.84      1.87      0.01         0.01
  YS02001890YS02001895        1.73      1.73      1.96      0.01         0.01
  YS02001895YS02001898        1.71      1.71      1.73      0.01         0.01
  YS02001898YS02001901        1.74      1.74      1.84      0.01         0.01
  YS02001901YS02001904        1.82      1.82      1.84      0.01         0.01
  YS02001904YS02001907        1.82      1.82      2.36      0.01         0.01
  YS02001887YS02001890        1.90      1.90      1.93      0.20         0.01
  YS02001652YS02001649        6.06      6.06      6.08      0.01         0.01
  YS02001655YS02001652        6.02      6.02      6.05      0.01         0.01
  YS02001658YS02001655        5.99      5.99      6.02      0.01         0.01
  YS02001661YS02001658        0.22      0.22      5.99      0.01         0.01
  YS02001664YS02001661        0.01      0.01      1.82      0.01         0.01
  YS02001793JiankangQianchi        3.79      3.79      4.69      0.01         0.01
  YS02001757CaochengTiaoxuchi        5.59      5.59      6.12      0.01         0.01
  
  
  ***************
  Pumping Summary
  ***************
  
  ---------------------------------------------------------------------------------------------------------
                                                  Min       Avg       Max     Total     Power    % Time Off
                        Percent   Number of      Flow      Flow      Flow    Volume     Usage    Pump Curve
  Pump                 Utilized   Start-Ups       LPS       LPS       LPS  10^6 ltr     Kw-hr    Low   High
  ---------------------------------------------------------------------------------------------------------
  CC-Pump-1               42.55           8      0.00    111.42    200.00     1.320      1.70    0.0    8.1
  CC-Pump-2               72.89           4      0.00    150.54    200.00     3.009      3.23    0.0    5.5
  JK-Pump-1                0.00           0      0.00      0.00      0.00     0.000      0.00    0.0    0.0
  JK-Pump-2              100.00           1      0.00    261.03    300.00     6.094     47.34    0.0    0.0
  XR-Pump-1               95.72           5      0.00     76.80     95.00     2.023     12.22    0.0    0.0
  XR-Pump-2               97.86           5      0.00     83.74     95.00     2.280     13.79    0.0    0.0
  XR-Pump-3                0.00           0      0.00      0.00      0.00     0.000      0.00    0.0    0.0
  XR-Pump-4               85.11           7      0.00     73.76     95.00     1.824     11.44    0.0    0.0
  

  Analysis begun on:  Thu Jan  6 15:42:13 2022
  Analysis ended on:  Thu Jan  6 15:42:17 2022
  Total elapsed time: 00:00:04