
  EPA STORM WATER MANAGEMENT MODEL - VERSION 5.1 (Build 5.3.0.dev0)
  --------------------------------------------------------------

  WARNING 04: minimum elevation drop used for Conduit WS02004404WS02004405
  WARNING 03: negative offset ignored for Link YS02001904YS02001907
  
  *********************************************************
  NOTE: The summary statistics displayed in this report are
  based on results found at every computational time step,  
  not just on results from each reporting time step.
  *********************************************************
  
  ****************
  Analysis Options
  ****************
  Flow Units ............... LPS
  Process Models:
    Rainfall/Runoff ........ YES
    RDII ................... NO
    Snowmelt ............... NO
    Groundwater ............ NO
    Flow Routing ........... YES
    Ponding Allowed ........ NO
    Water Quality .......... NO
  Infiltration Method ...... HORTON
  Flow Routing Method ...... DYNWAVE
  Surcharge Method ......... EXTRAN
  Starting Date ............ 08/28/2015 08:00:00
  Ending Date .............. 08/28/2015 15:50:00
  Antecedent Dry Days ...... 8.0
  Report Time Step ......... 00:01:00
  Wet Time Step ............ 00:01:00
  Dry Time Step ............ 00:01:00
  Routing Time Step ........ 5.00 sec
  Variable Time Step ....... YES
  Maximum Trials ........... 8
  Number of Threads ........ 4
  Head Tolerance ........... 0.001500 m
  
  
  **************************        Volume         Depth
  Runoff Quantity Continuity     hectare-m            mm
  **************************     ---------       -------
  Total Precipitation ......         4.854        10.627
  Evaporation Loss .........         0.000         0.000
  Infiltration Loss ........         1.246         2.727
  Surface Runoff ...........         2.607         5.707
  Final Storage ............         1.002         2.194
  Continuity Error (%) .....        -0.015
  
  
  **************************        Volume        Volume
  Flow Routing Continuity        hectare-m      10^6 ltr
  **************************     ---------     ---------
  Dry Weather Inflow .......         0.616         6.165
  Wet Weather Inflow .......         2.606        26.059
  Groundwater Inflow .......         0.000         0.000
  RDII Inflow ..............         0.000         0.000
  External Inflow ..........         0.102         1.024
  External Outflow .........         2.601        26.007
  Flooding Loss ............         0.442         4.423
  Evaporation Loss .........         0.000         0.000
  Exfiltration Loss ........         0.000         0.000
  Initial Stored Volume ....         0.076         0.761
  Final Stored Volume ......         0.523         5.225
  Continuity Error (%) .....        -4.847
  
  
  *************************
  Highest Continuity Errors
  *************************
  Node JK-storage (-20.07%)
  Node HS02004842 (17.68%)
  Node YS02001774 (16.66%)
  Node YS02001884 (10.76%)
  Node YSB1171 (3.62%)
  
  
  ***************************
  Time-Step Critical Elements
  ***************************
  Link 3 (62.02%)
  Link WS02006252WS02006251 (29.49%)
  Link WS02006238WS02006235 (3.69%)
  
  
  ********************************
  Highest Flow Instability Indexes
  ********************************
  Link YS02001619YS02001622 (34)
  Link YS02001629YS02163301 (32)
  Link YS02163301YS02001633 (32)
  Link YS02163601YS02164001 (31)
  Link WS02006252WS02006251 (30)
  
  
  *************************
  Routing Time Step Summary
  *************************
  Minimum Time Step           :     0.30 sec
  Average Time Step           :     0.74 sec
  Maximum Time Step           :     5.00 sec
  Percent in Steady State     :    -0.00
  Average Iterations per Step :     4.64
  Percent Not Converging      :    26.17
  
  
  ***************************
  Subcatchment Runoff Summary
  ***************************
  
  ------------------------------------------------------------------------------------------------------------------------------
                            Total      Total      Total      Total     Imperv       Perv      Total       Total     Peak  Runoff
                           Precip      Runon       Evap      Infil     Runoff     Runoff     Runoff      Runoff   Runoff   Coeff
  Subcatchment                 mm         mm         mm         mm         mm         mm         mm    10^6 ltr      LPS
  ------------------------------------------------------------------------------------------------------------------------------
  sub0                      10.63       0.00       0.00       0.74       8.62       0.00       8.62        0.01     1.33   0.811
  sub1                      10.63       0.00       0.00       1.17       8.20       0.00       8.20        0.05     9.09   0.772
  sub2                      10.63       0.00       0.00       3.93       5.79       0.00       5.79        0.05     8.42   0.544
  sub3                      10.63       0.00       0.00       3.93       5.75       0.00       5.75        0.13    19.27   0.541
  sub4                      10.63       0.00       0.00       1.17       8.05       0.00       8.05        0.17    23.93   0.757
  sub5                      10.63       0.00       0.00       0.74       8.57       0.00       8.57        0.10    16.17   0.806
  sub7                      10.63       0.00       0.00       0.96       8.41       0.00       8.41        0.03     5.13   0.792
  sub8                      10.63       0.00       0.00       0.96       8.41       0.00       8.41        0.05     9.46   0.791
  sub9                      10.63       0.00       0.00       0.96       8.40       0.00       8.40        0.04     7.08   0.791
  sub10                     10.63       0.00       0.00       0.85       8.48       0.00       8.48        0.09    15.87   0.798
  sub11                     10.63       0.00       0.00       0.85       8.50       0.00       8.50        0.10    17.56   0.800
  sub12                     10.63       0.00       0.00       1.38       8.06       0.00       8.06        0.07    13.15   0.758
  sub14                     10.63       0.00       0.00       0.96       8.40       0.00       8.40        0.08    13.93   0.791
  sub15                     10.63       0.00       0.00       3.19       6.46       0.00       6.46        0.11    19.14   0.608
  sub16                     10.63       0.00       0.00       3.51       6.20       0.00       6.20        0.06    12.01   0.584
  sub17                     10.63       0.00       0.00       3.40       6.29       0.00       6.29        0.05     9.91   0.592
  sub22                     10.63       0.00       0.00       4.57       5.27       0.00       5.27        0.33    59.53   0.496
  sub23                     10.63       0.00       0.00       3.93       5.82       0.00       5.82        0.28    50.05   0.548
  sub60                     10.63       0.00       0.00       1.28       6.54       0.00       6.54        1.98   196.13   0.615
  sub61                     10.63       0.00       0.00       1.81       6.69       0.00       6.69        2.06   224.83   0.630
  sub62                     10.63       0.00       0.00       0.85       7.26       0.00       7.26        2.23   236.97   0.684
  sub63                     10.63       0.00       0.00       3.08       5.87       0.00       5.87        1.78   199.96   0.553
  sub64                     10.63       0.00       0.00       1.59       6.27       0.00       6.27        1.91   187.22   0.590
  sub65                     10.63       0.00       0.00       1.38       6.37       0.00       6.37        1.96   190.91   0.599
  sub66                     10.63       0.00       0.00       3.08       5.39       0.00       5.39        1.65   167.73   0.507
  sub67                     10.63       0.00       0.00       0.85       7.71       0.00       7.71        2.38   272.25   0.726
  sub68                     10.63       0.00       0.00       1.49       7.05       0.00       7.05        2.17   241.26   0.664
  sub69                     10.63       0.00       0.00       1.59       7.35       0.00       7.35        1.72   204.41   0.692
  sub70                     10.63       7.50       0.00       6.16       9.71       0.01       9.71        2.22   229.02   0.536
  sub71                     10.63       0.00       0.00       0.85       7.06       0.00       7.06        1.67   170.86   0.664
  sub72                     10.63       0.00       0.00       0.74       5.52       0.00       5.52        1.12    91.59   0.519
  sub73                     10.63       9.45       0.00       6.83      10.48       0.00      10.49        2.46   215.21   0.522
  sub74                     10.63       0.00       0.00       7.97       2.19       0.00       2.19        0.88   108.49   0.206
  
  
  ******************
  Node Depth Summary
  ******************
  
  ---------------------------------------------------------------------------------
                                 Average  Maximum  Maximum  Time of Max    Reported
                                   Depth    Depth      HGL   Occurrence   Max Depth
  Node                 Type       Meters   Meters   Meters  days hr:min      Meters
  ---------------------------------------------------------------------------------
  WS02001211           JUNCTION     0.72     0.79     5.63     0  02:50        0.79
  WS02001212           JUNCTION     0.44     0.51     5.57     0  02:50        0.51
  WS02001213           JUNCTION     0.68     0.76     5.52     0  02:50        0.76
  WS02003069           JUNCTION     0.50     0.59     5.18     0  02:13        0.59
  WS02003072           JUNCTION     0.56     0.65     5.02     0  02:14        0.65
  WS02003073           JUNCTION     0.34     0.40     4.47     0  02:15        0.40
  WS02003060           JUNCTION     0.44     0.52     5.46     0  02:13        0.52
  WS02003066           JUNCTION     0.25     0.31     5.86     0  02:00        0.31
  WS02003059           JUNCTION     0.73     0.81     5.50     0  02:51        0.81
  WS02003067           JUNCTION     0.61     0.72     6.04     0  02:00        0.72
  WS02004401           JUNCTION     0.74     0.89     6.89     0  01:58        0.89
  WS02004402           JUNCTION     0.77     0.92     6.88     0  01:58        0.92
  WS02004403           JUNCTION     0.79     0.93     6.86     0  01:58        0.93
  WS02004404           JUNCTION     0.86     1.00     6.85     0  01:58        1.00
  WS02004406           JUNCTION     0.86     0.98     6.81     0  01:59        0.98
  WS02004409           JUNCTION     0.56     0.70     6.47     0  02:00        0.70
  WS02004410           JUNCTION     0.57     0.71     6.43     0  02:00        0.71
  WS02004411           JUNCTION     0.59     0.72     6.40     0  02:01        0.72
  WS02004412           JUNCTION     0.60     0.72     6.36     0  02:01        0.72
  WS02004413           JUNCTION     0.75     0.88     6.35     0  02:00        0.88
  WS02004405           JUNCTION     0.85     0.99     6.84     0  01:58        0.99
  WS02006109           JUNCTION     0.83     1.02     7.64     0  01:52        1.02
  WS02006110           JUNCTION     0.81     0.95     7.54     0  01:52        0.95
  WS02006111           JUNCTION     0.25     0.30     7.01     0  01:53        0.30
  WS02006112           JUNCTION     0.92     1.17     7.05     0  02:08        1.12
  WS02006113           JUNCTION     0.38     0.48     7.37     0  01:52        0.48
  WS02006115           JUNCTION     0.63     0.80     6.94     0  01:57        0.80
  WS02006116           JUNCTION     0.71     0.88     6.92     0  01:58        0.88
  WS02006230           JUNCTION     0.84     1.08     7.82     0  01:50        1.08
  WS02006231           JUNCTION     0.57     0.75     7.88     0  01:49        0.75
  WS02006232           JUNCTION     0.71     0.88     7.92     0  02:10        0.88
  WS02006234           JUNCTION     0.64     0.82     7.97     0  01:49        0.81
  WS02006235           JUNCTION     0.68     0.85     8.01     0  02:18        0.84
  WS02006238           JUNCTION     0.70     0.88     8.02     0  02:18        0.87
  WS02006240           JUNCTION     0.62     0.78     8.08     0  01:49        0.78
  WS02006242           JUNCTION     0.68     0.85     8.12     0  01:49        0.84
  WS02006243           JUNCTION     0.56     0.74     8.16     0  01:49        0.73
  WS02006245           JUNCTION     0.54     0.70     8.18     0  02:10        0.70
  WS02006247           JUNCTION     0.55     0.70     8.20     0  01:51        0.70
  WS02006248           JUNCTION     0.49     0.64     8.22     0  01:51        0.63
  WS02006249           JUNCTION     0.52     0.64     8.24     0  02:11        0.64
  WS02006239           JUNCTION     0.67     0.84     8.05     0  01:49        0.84
  WS02006251           JUNCTION     0.52     0.68     8.35     0  01:50        0.68
  WS02006252           JUNCTION     0.47     0.59     8.84     0  03:36        0.59
  WS02006253           JUNCTION     0.55     0.71     8.35     0  01:50        0.71
  WS02006256           JUNCTION     1.11     2.35     9.28     0  00:00        1.21
  WS02004138           JUNCTION     0.17     0.20     7.45     0  00:00        0.19
  WS02004407           JUNCTION     0.25     0.31     6.62     0  01:59        0.31
  WS02006228           JUNCTION     0.84     1.07     7.72     0  01:52        1.07
  WS02006229           JUNCTION     0.83     1.07     7.77     0  01:50        1.07
  WS02006280           JUNCTION     0.07     0.16     8.43     0  01:50        0.16
  WS02006284           JUNCTION     0.37     0.50     8.90     0  01:50        0.50
  WS02006287           JUNCTION     0.10     0.23     9.19     0  01:50        0.23
  WSF200               JUNCTION     0.25     0.33     5.56     0  02:07        0.33
  HS02004901           JUNCTION     0.13     0.24    10.06     0  01:47        0.24
  HS02004881           JUNCTION     0.01     0.03     9.06     0  01:50        0.03
  HS02004876           JUNCTION     0.05     0.11     9.14     0  01:47        0.11
  HS02004870           JUNCTION     0.02     0.05     9.33     0  01:50        0.05
  HS02004862           JUNCTION     0.02     0.05     9.44     0  01:51        0.05
  HS02004856           JUNCTION     0.08     0.11     9.54     0  01:51        0.11
  HS02004852           JUNCTION     0.01     0.03     9.54     0  01:52        0.03
  HS02004848           JUNCTION     0.01     0.03     9.63     0  01:51        0.03
  HS02004842           JUNCTION     0.33     0.36     9.63     0  01:51        0.36
  HS02004837           JUNCTION     0.03     0.05     9.63     0  01:51        0.05
  HS02004830           JUNCTION     0.04     0.07     9.54     0  01:51        0.07
  HS02004824           JUNCTION     0.02     0.05     9.45     0  02:16        0.05
  HS02004817           JUNCTION     0.44     0.54     9.39     0  01:51        0.54
  HS02004807           JUNCTION     0.13     0.22     9.39     0  01:51        0.22
  HS02004802           JUNCTION     0.17     0.25     9.38     0  01:51        0.25
  HS02004799           JUNCTION     0.12     0.28     9.49     0  01:48        0.28
  HS02004792           JUNCTION     0.03     0.11     9.63     0  01:47        0.11
  HS02004788           JUNCTION     0.03     0.08     9.98     0  01:48        0.08
  HS02004785           JUNCTION     0.05     0.14    10.04     0  01:48        0.14
  HS02004777           JUNCTION     0.15     0.26    10.06     0  01:47        0.26
  HS02004770           JUNCTION     0.12     0.23    10.06     0  01:47        0.23
  HS02004480           JUNCTION     0.09     0.21     9.46     0  01:48        0.21
  HS02004479           JUNCTION     0.12     0.25     9.46     0  01:48        0.25
  HS02004478           JUNCTION     0.06     0.14     9.37     0  01:49        0.14
  YS02001745           JUNCTION     0.62     0.86     8.38     0  03:53        0.86
  YS02001748           JUNCTION     1.02     2.27     9.35     0  02:44        1.31
  YS02001751           JUNCTION     1.20     2.11     8.99     0  02:29        1.51
  YS02001754           JUNCTION     1.46     2.05     8.66     0  02:29        1.80
  YS02001762           JUNCTION     1.66     2.02     8.42     0  03:56        2.02
  YS02001765           JUNCTION     1.61     1.97     8.42     0  03:13        1.97
  YS02001767           JUNCTION     1.58     1.93     8.42     0  03:14        1.92
  YS02001770           JUNCTION     1.57     1.91     8.40     0  03:34        1.90
  YS02001774           JUNCTION     1.64     1.97     8.39     0  03:42        1.96
  YS02001779           JUNCTION     1.39     1.68     8.37     0  02:30        1.68
  YS02001882           JUNCTION     0.42     0.84     7.56     0  03:03        0.84
  YS02001884           JUNCTION     0.52     0.94     7.56     0  03:02        0.94
  YS02001759           JUNCTION     1.70     2.06     8.43     0  03:15        2.06
  YS02001887           JUNCTION     0.60     1.02     7.56     0  03:02        1.02
  YS02001890           JUNCTION     0.63     1.05     7.56     0  03:03        1.05
  YS02001898           JUNCTION     0.39     0.81     7.55     0  03:03        0.81
  YS02001901           JUNCTION     0.51     0.94     7.55     0  03:02        0.93
  YS02001904           JUNCTION     0.49     0.91     7.54     0  03:03        0.91
  YS02001907           JUNCTION     0.82     1.25     7.54     0  03:02        1.25
  YS02001910           JUNCTION     0.61     1.04     7.55     0  03:02        1.04
  YS02001915           JUNCTION     0.41     0.83     7.55     0  03:03        0.83
  YS02001918           JUNCTION     0.16     0.48     7.55     0  03:03        0.48
  YS02001619           JUNCTION     1.17     1.61     8.54     0  02:35        1.46
  YS02001629           JUNCTION     1.53     1.85     8.40     0  02:40        1.85
  YS02001641           JUNCTION     1.63     1.98     8.42     0  02:48        1.93
  YS02001644           JUNCTION     1.64     1.92     8.35     0  02:48        1.92
  YS02001652           JUNCTION     1.47     2.16     8.76     0  03:12        1.87
  YS02001655           JUNCTION     1.23     2.20     9.05     0  02:22        1.67
  YS02001920           JUNCTION     0.26     0.55     7.56     0  03:03        0.53
  YS02001923           JUNCTION     0.11     0.30     7.56     0  03:03        0.30
  YS02001926           JUNCTION     0.20     0.26     7.71     0  03:01        0.26
  YS02001929           JUNCTION     0.10     0.14     7.84     0  03:01        0.14
  YS02001658           JUNCTION     0.96     2.30     9.44     0  02:37        1.82
  YS02001661           JUNCTION     0.73     2.36     9.77     0  03:15        1.19
  YS02001664           JUNCTION     0.29     0.57     8.50     0  03:00        0.56
  YS02001622           JUNCTION     1.19     1.62     8.52     0  02:39        1.49
  YS02001633           JUNCTION     1.62     2.03     8.49     0  02:48        1.94
  YS02001649           JUNCTION     1.67     2.05     8.44     0  02:59        2.05
  YS02001757           JUNCTION     1.79     2.17     8.43     0  03:52        2.16
  YS02001895           JUNCTION     0.39     0.80     7.55     0  03:03        0.80
  YS02001625           JUNCTION     1.48     1.78     8.38     0  02:39        1.78
  YS02163301           JUNCTION     1.56     1.95     8.47     0  02:48        1.88
  YS02163601           JUNCTION     1.67     2.06     8.46     0  02:48        1.98
  YS02164001           JUNCTION     1.61     2.00     8.45     0  02:48        1.92
  YS02001647           JUNCTION     1.46     1.80     8.41     0  03:04        1.79
  YSB1154              JUNCTION     0.26     0.40     9.46     0  01:48        0.40
  YSB6556              JUNCTION     0.15     0.29     9.46     0  01:48        0.29
  YSB1174              JUNCTION     0.21     0.35     9.46     0  01:48        0.35
  YSB1171              JUNCTION     0.41     0.55     9.46     0  01:48        0.55
  YS02006553           JUNCTION     0.83     1.25     7.53     0  03:02        1.25
  YS02006561           JUNCTION     0.23     0.56     7.22     0  03:03        0.56
  YS02006556           JUNCTION     0.80     1.21     7.52     0  03:02        1.21
  YS02006558           JUNCTION     0.84     1.24     7.51     0  03:02        1.24
  YS02001783           JUNCTION     0.43     1.64     7.78     0  02:37        1.08
  YS02001784           JUNCTION     0.46     1.84     7.91     0  02:37        1.07
  YS02001786           JUNCTION     0.41     2.23     8.26     0  02:37        0.98
  YS02001788           JUNCTION     0.34     1.82     7.80     0  02:37        0.92
  YS02001790           JUNCTION     0.43     1.96     7.60     0  02:35        1.16
  YS02001791           JUNCTION     0.38     1.67     7.14     0  02:37        1.22
  YS02001793           JUNCTION     0.47     2.40     7.23     0  02:33        1.79
  WS02004139           JUNCTION     0.66     0.74     5.65     0  02:50        0.74
  WSC                  OUTFALL      0.34     0.40     1.07     0  02:15        0.40
  3                    OUTFALL      0.13     0.23     6.23     0  00:00        0.21
  4                    OUTFALL      0.06     0.14     7.14     0  02:11        0.14
  5                    OUTFALL      0.00     0.00     5.00     0  00:00        0.00
  JK-storage           STORAGE      1.77     5.80     6.60     0  02:36        5.80
  CC-storage           STORAGE      1.00     1.37     8.37     0  03:53        1.37
  XR-storage           STORAGE      5.35     7.72     5.72     0  03:21        7.72
  
  
  *******************
  Node Inflow Summary
  *******************
  
  -------------------------------------------------------------------------------------------------
                                  Maximum  Maximum                  Lateral       Total        Flow
                                  Lateral    Total  Time of Max      Inflow      Inflow     Balance
                                   Inflow   Inflow   Occurrence      Volume      Volume       Error
  Node                 Type           LPS      LPS  days hr:min    10^6 ltr    10^6 ltr     Percent
  -------------------------------------------------------------------------------------------------
  WS02001211           JUNCTION      7.35   387.95     0  05:12       0.207        8.84       0.327
  WS02001212           JUNCTION      0.00   388.28     0  05:12           0        8.81       0.200
  WS02001213           JUNCTION      0.00   388.56     0  05:11           0        8.79       0.265
  WS02003069           JUNCTION      0.32   967.74     0  02:13     0.00902        18.7       0.160
  WS02003072           JUNCTION      0.00   967.63     0  02:14           0        18.7       0.198
  WS02003073           JUNCTION      1.82   969.94     0  02:14      0.0514        18.7       0.223
  WS02003060           JUNCTION     16.53   967.00     0  02:12       0.466        18.7       0.151
  WS02003066           JUNCTION      0.00   586.21     0  02:00           0        9.51       0.052
  WS02003059           JUNCTION      0.00   389.05     0  05:11           0        8.77       0.390
  WS02003067           JUNCTION      0.00   586.15     0  02:01           0        9.52       0.105
  WS02004401           JUNCTION      0.00   589.43     0  01:58           0        9.77       0.231
  WS02004402           JUNCTION      0.00   588.54     0  01:58           0        9.75       0.217
  WS02004403           JUNCTION      0.00   588.58     0  01:58           0        9.73       0.197
  WS02004404           JUNCTION      0.16   588.33     0  01:58     0.00457        9.71       0.146
  WS02004406           JUNCTION      0.00   588.55     0  01:59           0        9.68       0.357
  WS02004409           JUNCTION      0.00   587.73     0  01:59           0        9.64       0.188
  WS02004410           JUNCTION      0.00   587.11     0  01:59           0        9.62       0.212
  WS02004411           JUNCTION      0.00   586.71     0  01:59           0         9.6       0.216
  WS02004412           JUNCTION      0.00   586.45     0  02:00           0        9.58       0.231
  WS02004413           JUNCTION      0.00   586.35     0  02:01           0        9.55       0.340
  WS02004405           JUNCTION      0.04   588.15     0  01:59     0.00107         9.7       0.221
  WS02006109           JUNCTION      1.23   583.08     0  01:50      0.0347        9.85       0.235
  WS02006110           JUNCTION      0.00   583.13     0  01:50           0        9.82       0.207
  WS02006111           JUNCTION      0.00   610.06     0  01:52           0        9.79       0.046
  WS02006112           JUNCTION      9.91   597.43     0  01:53       0.054        9.84       0.300
  WS02006113           JUNCTION      0.00   584.34     0  01:50           0         9.8       0.104
  WS02006115           JUNCTION      0.00   605.10     0  02:09           0        9.81       0.223
  WS02006116           JUNCTION      0.00   591.54     0  01:58           0        9.79       0.213
  WS02006230           JUNCTION     10.28   400.44     0  04:32        0.29        8.21       0.178
  WS02006231           JUNCTION      0.00   391.06     0  04:31           0        7.93       0.126
  WS02006232           JUNCTION      0.00   391.11     0  04:31           0        7.94       0.208
  WS02006234           JUNCTION      0.00   392.98     0  04:31           0        7.95       0.104
  WS02006235           JUNCTION      0.00   392.80     0  04:02           0        7.99       0.141
  WS02006238           JUNCTION      0.00   336.34     0  05:10           0           6       0.129
  WS02006240           JUNCTION      0.00   334.51     0  05:10           0           6       0.205
  WS02006242           JUNCTION      0.00   335.64     0  05:11           0        6.01       0.247
  WS02006243           JUNCTION      0.00   335.09     0  05:11           0        6.01       0.076
  WS02006245           JUNCTION      0.00   334.51     0  04:00           0        6.01       0.161
  WS02006247           JUNCTION      0.00   342.72     0  04:00           0        6.02       0.116
  WS02006248           JUNCTION      0.00   349.09     0  04:00           0        6.03       0.076
  WS02006249           JUNCTION      0.00   456.18     0  01:51           0        7.49       0.130
  WS02006239           JUNCTION      0.00   335.77     0  05:10           0           6       0.195
  WS02006251           JUNCTION      0.08   457.40     0  01:51     0.00217        7.52       0.121
  WS02006252           JUNCTION      0.00   400.00     0  01:50           0        7.19       0.006
  WS02006253           JUNCTION      1.33    51.15     0  01:49     0.00698        0.33       1.181
  WS02006256           JUNCTION      0.00   600.00     0  00:00           0        7.94       0.028
  WS02004138           JUNCTION      0.00   380.00     0  00:00           0        8.66       0.058
  WS02004407           JUNCTION      0.00   587.89     0  01:59           0        9.64       0.083
  WS02006228           JUNCTION      0.00   581.84     0  01:50           0        9.83       0.165
  WS02006229           JUNCTION      0.00   582.72     0  01:50           0        9.84       0.123
  WS02006280           JUNCTION      0.00   250.77     0  01:50           0        1.65       0.004
  WS02006284           JUNCTION      0.10   250.79     0  01:50      0.0027        1.65       0.062
  WS02006287           JUNCTION      0.00   250.70     0  01:50           0        1.65       0.044
  WSF200               JUNCTION      0.00   586.27     0  02:00           0        9.51       0.055
  HS02004901           JUNCTION     12.01    12.01     0  01:45      0.0649      0.0651       2.778
  HS02004881           JUNCTION      5.13    49.92     0  01:49      0.0283       0.303       0.102
  HS02004876           JUNCTION      9.09    44.88     0  01:50      0.0545       0.275       0.197
  HS02004870           JUNCTION      9.46    35.90     0  01:50      0.0537       0.221       0.049
  HS02004862           JUNCTION      8.62    26.77     0  01:51      0.0595       0.167       0.103
  HS02004856           JUNCTION      7.08    18.19     0  01:50      0.0404       0.109       1.339
  HS02004852           JUNCTION      0.00    11.37     0  01:51           0      0.0688       0.079
  HS02004848           JUNCTION     19.27    19.27     0  02:15       0.129       0.129       0.035
  HS02004842           JUNCTION      0.00     7.96     0  02:16           0      0.0736      21.474
  HS02004837           JUNCTION     22.22    28.76     0  01:50       0.273       0.333       0.245
  HS02004830           JUNCTION      0.15    28.90     0  01:51     0.00423       0.323       0.383
  HS02004824           JUNCTION     23.98    52.78     0  02:16       0.169       0.492       0.110
  HS02004817           JUNCTION      0.60    53.38     0  02:16      0.0169       0.508       3.394
  HS02004807           JUNCTION     17.56    68.44     0  02:16      0.0987        0.59       0.739
  HS02004802           JUNCTION      0.00    68.45     0  02:16           0       0.587       0.679
  HS02004799           JUNCTION     13.93   155.61     0  01:47      0.0799       0.915       0.288
  HS02004792           JUNCTION     59.81   141.74     0  01:47       0.341       0.835       0.049
  HS02004788           JUNCTION     20.81    82.39     0  01:48       0.158       0.496       0.078
  HS02004785           JUNCTION      0.15    61.69     0  01:47     0.00423       0.339       0.145
  HS02004777           JUNCTION      0.03    61.69     0  01:46    0.000846        0.34       1.552
  HS02004770           JUNCTION     50.05    61.90     0  01:46       0.278       0.341       0.915
  HS02004480           JUNCTION      0.00   184.53     0  01:48           0        1.08       0.105
  HS02004479           JUNCTION      0.00    29.01     0  01:50           0       0.176       0.418
  HS02004478           JUNCTION      0.00   250.67     0  01:49           0        1.65       0.021
  YS02001745           JUNCTION    196.14   432.22     0  02:43        1.98           2       0.330
  YS02001748           JUNCTION      0.04   593.49     0  02:43     0.00127           2       0.988
  YS02001751           JUNCTION      0.01   359.31     0  02:28     0.00031        1.96       1.208
  YS02001754           JUNCTION      0.26   240.50     0  02:21     0.00733        1.94       1.282
  YS02001762           JUNCTION      0.00   241.12     0  02:54           0        2.07       1.022
  YS02001765           JUNCTION      0.00   240.12     0  02:54           0        2.08       1.175
  YS02001767           JUNCTION      0.54   239.29     0  02:54      0.0151         2.1       1.711
  YS02001770           JUNCTION    237.12   238.21     0  02:59        2.24        2.25       1.411
  YS02001774           JUNCTION      0.00    60.31     0  03:19           0       0.151      19.992
  YS02001779           JUNCTION      0.01    60.75     0  03:19    0.000141       0.115      15.441
  YS02001882           JUNCTION      0.00    20.71     0  02:39           0       0.017      13.902
  YS02001884           JUNCTION      0.00    39.11     0  02:39           0       0.053      12.060
  YS02001759           JUNCTION    224.87   464.57     0  02:54        2.06         4.1       0.557
  YS02001887           JUNCTION    272.70   295.84     0  02:39        2.39        2.42       0.333
  YS02001890           JUNCTION      0.00   283.11     0  02:39           0        2.38       0.371
  YS02001898           JUNCTION      0.00   282.37     0  02:40           0        2.36       0.115
  YS02001901           JUNCTION      0.00   276.01     0  02:40           0        2.36       0.277
  YS02001904           JUNCTION      0.00   266.74     0  03:02           0        2.36       0.252
  YS02001907           JUNCTION      0.00   525.92     0  03:06           0        5.21       0.449
  YS02001910           JUNCTION      0.00   268.54     0  03:09           0        2.86       0.395
  YS02001915           JUNCTION    170.88   266.72     0  03:05        1.67        2.86       0.196
  YS02001918           JUNCTION      0.00   118.45     0  03:15           0         1.2       0.142
  YS02001619           JUNCTION    167.73   167.73     0  03:01        1.65        1.65       0.716
  YS02001629           JUNCTION      0.00   189.25     0  02:27           0        1.57       1.775
  YS02001641           JUNCTION      0.00   364.92     0  02:40           0        3.43       0.611
  YS02001644           JUNCTION    187.26   640.64     0  03:22        1.91           6       0.433
  YS02001652           JUNCTION      0.00   281.14     0  02:22           0        1.74       1.298
  YS02001655           JUNCTION      0.15   475.04     0  02:22     0.00434        1.77       1.345
  YS02001920           JUNCTION      2.87   117.18     0  03:04      0.0809         1.2       0.227
  YS02001923           JUNCTION      0.04    91.49     0  03:01     0.00106        1.12       0.042
  YS02001926           JUNCTION      0.05    91.60     0  03:01     0.00147        1.12       0.282
  YS02001929           JUNCTION     91.59    91.59     0  03:01        1.12        1.12       0.041
  YS02001658           JUNCTION      0.00   621.20     0  02:36           0        1.82       0.838
  YS02001661           JUNCTION      0.00   608.50     0  03:00           0        2.56      -0.135
  YS02001664           JUNCTION    199.96   381.26     0  03:00        1.78        2.52       0.094
  YS02001622           JUNCTION      0.00   182.01     0  02:10           0        1.64       1.925
  YS02001633           JUNCTION    191.11   364.46     0  02:40        1.96        3.49       0.903
  YS02001649           JUNCTION      0.00   744.60     0  02:57           0        5.06       0.732
  YS02001757           JUNCTION      0.00  1377.39     0  02:56           0        10.3       0.898
  YS02001895           JUNCTION      0.00   286.66     0  02:40           0        2.37       0.201
  YS02001625           JUNCTION      0.00   189.37     0  02:27           0        1.61       2.460
  YS02163301           JUNCTION      0.00   199.01     0  02:11           0        1.56       1.547
  YS02163601           JUNCTION      0.11   364.70     0  02:40      0.0031        3.45       0.872
  YS02164001           JUNCTION      0.00   364.83     0  02:40           0        3.43       0.576
  YS02001647           JUNCTION      0.00   548.13     0  02:58           0         3.8       0.726
  YSB1154              JUNCTION     16.17    16.17     0  01:48       0.097      0.0978       1.500
  YSB6556              JUNCTION      0.00    16.24     0  01:49           0      0.0986       1.284
  YSB1174              JUNCTION     13.15    13.15     0  01:45      0.0704      0.0709       1.845
  YSB1171              JUNCTION      0.00    29.31     0  01:48           0       0.175       3.755
  YS02006553           JUNCTION      0.00   525.95     0  03:06           0         5.2       0.288
  YS02006561           JUNCTION      0.00   752.78     0  03:02           0        7.33       0.006
  YS02006556           JUNCTION      0.00   525.96     0  03:06           0         5.2       0.211
  YS02006558           JUNCTION    242.14   752.63     0  03:02        2.19        7.37       0.072
  YS02001783           JUNCTION      0.00   758.43     0  02:37           0        7.33       0.030
  YS02001784           JUNCTION      1.06   753.40     0  03:04      0.0299        7.36       0.047
  YS02001786           JUNCTION      0.06   753.33     0  03:04     0.00159        7.36       0.042
  YS02001788           JUNCTION      0.07   753.34     0  03:04       0.002        7.36       0.025
  YS02001790           JUNCTION      0.15   753.57     0  03:03     0.00437        7.36       0.030
  YS02001791           JUNCTION      0.00   753.64     0  03:04           0        7.36       0.015
  YS02001793           JUNCTION      0.00   753.72     0  03:04           0        7.36       0.003
  WS02004139           JUNCTION      0.32   393.99     0  00:00     0.00905        8.67       0.397
  WSC                  OUTFALL       0.00   970.43     0  02:15           0        18.6       0.000
  3                    OUTFALL       0.00   597.65     0  00:00           0        5.93       0.000
  4                    OUTFALL       0.00   186.85     0  02:11           0        1.45       0.000
  5                    OUTFALL       0.00     0.00     0  00:00           0           0       0.000 ltr
  JK-storage           STORAGE       0.00   915.64     0  02:33           0        7.51     -16.716
  CC-storage           STORAGE       0.00  1377.12     0  02:56           0        9.94       0.377
  XR-storage           STORAGE     519.52   519.52     0  03:01        8.98        9.58      -0.882
  
  
  **********************
  Node Surcharge Summary
  **********************
  
  Surcharging occurs when water rises above the top of the highest conduit.
  ---------------------------------------------------------------------
                                               Max. Height   Min. Depth
                                   Hours       Above Crown    Below Rim
  Node                 Type      Surcharged         Meters       Meters
  ---------------------------------------------------------------------
  WS02006109           JUNCTION        4.42          0.198        1.622
  WS02006110           JUNCTION        1.17          0.044        1.806
  WS02006112           JUNCTION        1.24          0.168        1.512
  WS02006231           JUNCTION        0.68          0.044        1.486
  WS02006232           JUNCTION        4.63          0.184        1.296
  WS02006234           JUNCTION        1.16          0.095        1.145
  WS02006235           JUNCTION        3.06          0.139        1.151
  WS02006238           JUNCTION        4.04          0.157        1.273
  WS02006240           JUNCTION        1.33          0.074        1.316
  WS02006242           JUNCTION        3.43          0.122        0.698
  WS02006243           JUNCTION        0.83          0.026        0.744
  WS02006239           JUNCTION        1.61          0.097        1.193
  WS02006252           JUNCTION        4.76          0.193        0.907
  WS02006256           JUNCTION        0.01          1.050        0.000
  WS02006228           JUNCTION        4.22          0.243        1.957
  YS02001748           JUNCTION        4.11          1.190        0.000
  YS02001751           JUNCTION        5.26          1.110        0.090
  YS02001754           JUNCTION        5.54          0.997        0.153
  YS02001762           JUNCTION        5.94          1.023        0.127
  YS02001765           JUNCTION        5.90          0.973        0.127
  YS02001767           JUNCTION        5.75          0.927        0.103
  YS02001770           JUNCTION        5.72          0.876        0.044
  YS02001774           JUNCTION        5.93          0.971        0.079
  YS02001779           JUNCTION        5.54          0.680        0.000
  YS02001759           JUNCTION        5.96          1.064        0.146
  YS02001890           JUNCTION        0.01          0.001        0.759
  YS02001907           JUNCTION        1.23          0.243        0.707
  YS02001910           JUNCTION        0.20          0.040        1.060
  YS02001619           JUNCTION        5.24          0.610        0.000
  YS02001629           JUNCTION        5.28          0.470        0.000
  YS02001641           JUNCTION        5.92          0.983        0.117
  YS02001644           JUNCTION        5.92          0.920        0.000
  YS02001652           JUNCTION        5.59          1.130        0.000
  YS02001655           JUNCTION        5.29          1.200        0.000
  YS02001658           JUNCTION        4.16          1.300        0.000
  YS02001661           JUNCTION        0.17          1.294        0.096
  YS02001622           JUNCTION        5.34          0.620        0.000
  YS02001633           JUNCTION        5.87          1.012        0.048
  YS02001649           JUNCTION        5.94          1.050        0.000
  YS02001757           JUNCTION        6.03          1.167        0.043
  YS02001625           JUNCTION        5.68          0.780        0.000
  YS02163301           JUNCTION        5.75          0.951        0.079
  YS02163601           JUNCTION        5.95          1.058        0.022
  YS02164001           JUNCTION        5.89          0.996        0.104
  YS02001647           JUNCTION        5.62          0.804        0.096
  YS02006553           JUNCTION        1.31          0.251        0.939
  YS02006556           JUNCTION        0.64          0.167        1.183
  YS02006558           JUNCTION        0.59          0.143        1.257
  YS02001783           JUNCTION        0.79          0.839        0.761
  YS02001784           JUNCTION        0.85          1.045        0.445
  YS02001786           JUNCTION        0.79          1.430        0.000
  YS02001788           JUNCTION        0.79          1.025        0.455
  YS02001790           JUNCTION        1.25          1.157        0.000
  YS02001791           JUNCTION        1.28          0.867        1.053
  YS02001793           JUNCTION        1.37          1.395        1.205
  
  
  *********************
  Node Flooding Summary
  *********************
  
  Flooding refers to all water that overflows a node, whether it ponds or not.
  --------------------------------------------------------------------------
                                                             Total   Maximum
                                 Maximum   Time of Max       Flood    Ponded
                        Hours       Rate    Occurrence      Volume     Depth
  Node                 Flooded       LPS   days hr:min    10^6 ltr    Meters
  --------------------------------------------------------------------------
  WS02006256              0.01    406.11      0  00:00       0.001     0.000
  YS02001748              0.01    134.08      0  02:44       0.000     0.000
  YS02001779              1.51     60.73      0  03:19       0.089     0.000
  YS02001619              0.01     22.17      0  02:42       0.000     0.000
  YS02001629              0.01     37.46      0  02:42       0.001     0.000
  YS02001644              2.46    640.45      0  03:22       2.848     0.000
  YS02001652              0.01      5.81      0  03:24       0.000     0.000
  YS02001655              0.01    206.00      0  02:30       0.001     0.000
  YS02001658              0.01    349.47      0  02:38       0.001     0.000
  YS02001622              0.01     30.78      0  02:41       0.000     0.000
  YS02001649              0.05     36.78      0  03:04       0.002     0.000
  YS02001625              0.15     36.69      0  02:45       0.002     0.000
  YS02001786              0.01     68.25      0  02:37       0.000     0.000
  YS02001790              0.01    109.72      0  02:35       0.000     0.000
  JK-storage              1.05    453.69      0  03:04       1.075     0.000
  XR-storage              1.23    180.12      0  04:10       0.402     0.000
  
  
  **********************
  Storage Volume Summary
  **********************
  
  --------------------------------------------------------------------------------------------------
                         Average     Avg  Evap Exfil       Maximum     Max    Time of Max    Maximum
                          Volume    Pcnt  Pcnt  Pcnt        Volume    Pcnt     Occurrence    Outflow
  Storage Unit           1000 m3    Full  Loss  Loss       1000 m3    Full    days hr:min        LPS
  --------------------------------------------------------------------------------------------------
  JK-storage               0.089      31     0     0         0.291     100       0  02:36     600.00
  CC-storage               2.782      18     0     0         3.824      24       0  03:53     400.00
  XR-storage               0.643      69     0     0         0.926     100       0  03:21     380.00
  
  
  ***********************
  Outfall Loading Summary
  ***********************
  
  -----------------------------------------------------------
                         Flow       Avg       Max       Total
                         Freq      Flow      Flow      Volume
  Outfall Node           Pcnt       LPS       LPS    10^6 ltr
  -----------------------------------------------------------
  WSC                   99.99    728.46    970.43      18.630
  3                     95.56    282.68    597.65       5.927
  4                     69.45     86.31    186.85       1.450
  5                      0.00      0.00      0.00       0.000
  -----------------------------------------------------------
  System                66.25   1097.45   1682.80      26.007
  
  
  ********************
  Link Flow Summary
  ********************
  
  -----------------------------------------------------------------------------
                                 Maximum  Time of Max   Maximum    Max/    Max/
                                  |Flow|   Occurrence   |Veloc|    Full    Full
  Link                 Type          LPS  days hr:min     m/sec    Flow   Depth
  -----------------------------------------------------------------------------
  WS02003066WSF200     CONDUIT    586.27     0  02:00      2.79    0.10    0.24
  WS02006287WS02006284 CONDUIT    250.70     0  01:50      1.73    0.12    0.24
  WS02006284WS02006280 CONDUIT    250.77     0  01:50      1.97    0.11    0.22
  WS02006280WS02006229 CONDUIT    250.78     0  01:50      3.17    0.05    0.16
  WS02006229WS02006228 CONDUIT    581.84     0  01:50      1.16    1.93    1.00
  WS02006256WS02006235 CONDUIT    177.52     0  00:01      2.73    1.88    1.00
  WS02006253WS02006251 CONDUIT     57.32     0  01:51      0.51    0.17    0.98
  WS02006252WS02006251 CONDUIT    400.59     0  05:10      3.19    1.47    1.00
  WS02006251WS02006249 CONDUIT    456.18     0  01:51      1.21    1.32    0.94
  WS02006249WS02006248 CONDUIT    349.09     0  04:00      1.15    1.91    0.90
  WS02006248WS02006247 CONDUIT    342.72     0  04:00      1.12    0.75    0.95
  WS02006247WS02006245 CONDUIT    334.51     0  04:00      1.09    2.65    0.99
  WS02006245WS02006243 CONDUIT    335.09     0  05:11      1.12    0.99    1.00
  WS02006243WS02006242 CONDUIT    335.64     0  05:11      0.94    0.72    1.00
  WS02006242WS02006240 CONDUIT    334.51     0  05:10      0.90    1.33    1.00
  WS02006240WS02006239 CONDUIT    335.77     0  05:10      0.94    1.06    1.00
  WS02006239WS02006238 CONDUIT    336.34     0  05:10      0.90    1.08    1.00
  WS02006238WS02006235 CONDUIT    334.78     0  05:10      1.32    0.75    1.00
  WS02006235WS02006234 CONDUIT    392.98     0  04:31      1.04    4.15    1.00
  WS02006234WS02006232 CONDUIT    391.11     0  04:31      1.17    0.79    1.00
  WS02006232WS02006231 CONDUIT    391.06     0  04:31      1.06    0.82    1.00
  WS02006231WS02006230 CONDUIT    390.16     0  04:32      1.31    5.92    1.00
  WS02006230WS02006229 CONDUIT    400.08     0  04:32      1.04    8.90    1.00
  WS02006228WS02006109 CONDUIT    581.85     0  01:50      1.16    2.54    1.00
  WS02006116WS02004401 CONDUIT    589.43     0  01:58      0.80    0.81    0.88
  WS02006115WS02006116 CONDUIT    591.54     0  01:58      0.91    0.76    0.81
  WS02006113WS02006111 CONDUIT    610.06     0  01:52      2.53    0.73    0.48
  WS02006112WS02006115 CONDUIT    605.10     0  02:09      0.82    0.36    0.89
  WS02006111WS02006112 CONDUIT    588.38     0  01:53      1.61    0.28    0.68
  WS02006110WS02006113 CONDUIT    584.34     0  01:50      1.36    0.53    0.80
  WS02006109WS02006110 CONDUIT    583.13     0  01:50      1.16    1.12    1.00
  WS02004411WS02004412 CONDUIT    586.45     0  02:00      0.97    0.83    0.72
  WS02004401WS02004402 CONDUIT    588.54     0  01:58      0.79    0.71    0.90
  WS02004413WS02003067 CONDUIT    586.15     0  02:01      1.17    0.25    0.61
  WS02004412WS02004413 CONDUIT    586.35     0  02:01      0.87    0.39    0.80
  WS02004410WS02004411 CONDUIT    586.71     0  01:59      0.97    0.80    0.72
  WS02004409WS02004410 CONDUIT    587.11     0  01:59      1.00    0.76    0.71
  WS02004407WS02004409 CONDUIT    587.73     0  01:59      1.52    0.21    0.51
  WS02004406WS02004407 CONDUIT    587.89     0  01:59      1.10    0.26    0.65
  WS02004405WS02004406 CONDUIT    588.55     0  01:59      0.75    1.16    0.99
  WS02004404WS02004405 CONDUIT    588.11     0  01:59      0.75    5.76    0.99
  WS02004403WS02004404 CONDUIT    588.16     0  01:58      0.76    0.43    0.96
  WS02004402WS02004403 CONDUIT    588.58     0  01:58      0.78    0.85    0.92
  WS02004139WS02001211 CONDUIT    380.60     0  05:12      0.90    0.48    0.60
  WS02004138WS02004139 CONDUIT    393.66     0  00:00      3.65    0.08    0.44
  WS02003067WS02003066 CONDUIT    586.21     0  02:00      1.27    0.19    0.43
  WS02001213WS02003059 CONDUIT    389.05     0  05:11      0.91    0.64    0.78
  WS02001212WS02001213 CONDUIT    388.56     0  05:11      1.32    0.60    0.48
  WS02001211WS02001212 CONDUIT    388.28     0  05:12      0.78    0.30    0.65
  WS02003072WS02003073 CONDUIT    968.12     0  02:14      1.74    2.09    0.49
  WS02003069WS02003072 CONDUIT    967.63     0  02:14      1.64    0.47    0.52
  WS02003060WS02003069 CONDUIT    967.42     0  02:13      1.88    0.38    0.46
  WS02003059WS02003060 CONDUIT    389.71     0  05:10      0.95    0.25    0.67
  HS02004901HS02004770 CONDUIT     11.86     0  01:47      0.05    0.04    0.34
  HS02004876HS02004881 CONDUIT     44.96     0  01:50      0.68    0.48    0.09
  HS02004870HS02004876 CONDUIT     35.89     0  01:50      0.47    0.02    0.11
  HS02004842HS02004848 CONDUIT      7.96     0  02:16      0.04    0.00    0.28
  HS02004837HS02004842 CONDUIT      8.06     0  02:20      0.41    0.00    0.30
  HS02004830HS02004837 CONDUIT     28.75     0  01:51      0.48    0.03    0.09
  HS02004824HS02004830 CONDUIT     28.90     0  01:52      0.51    0.04    0.08
  HS02004817HS02004824 CONDUIT     52.78     0  02:16      0.18    0.02    0.42
  HS02004770HS02004777 CONDUIT     61.66     0  01:46      0.25    0.11    0.35
  HS02004799HS02004480 CONDUIT    155.54     0  01:47      0.65    0.20    0.34
  HS02004792HS02004799 CONDUIT    141.71     0  01:47      0.74    0.09    0.27
  HS02004788HS02004792 CONDUIT     82.36     0  01:48      0.88    0.05    0.13
  HS02004785HS02004788 CONDUIT     61.65     0  01:48      0.55    0.46    0.16
  HS02004777HS02004785 CONDUIT     61.54     0  01:47      0.30    0.08    0.29
  HS02004480HS02004478 CONDUIT    184.33     0  01:49      1.04    0.78    0.25
  HS02004479HS02004480 CONDUIT     29.23     0  01:51      0.28    0.03    0.33
  HS02004862HS02004870 CONDUIT     26.75     0  01:51      0.52    0.03    0.07
  HS02004848HS02004852 CONDUIT     11.37     0  01:51      0.35    0.01    0.05
  HS02004856HS02004862 CONDUIT     18.17     0  01:51      0.38    0.02    0.07
  HS02004852HS02004856 CONDUIT     11.35     0  01:52      0.16    0.01    0.10
  HS02004802HS02004478 CONDUIT     68.53     0  02:17      0.36    0.06    0.28
  HS02004478WS02006287 CONDUIT    250.70     0  01:50      1.43    0.07    0.19
  HS02004817HS02004807 CONDUIT     53.46     0  02:17      0.14    0.03    0.54
  HS02004807HS02004802 CONDUIT     68.45     0  02:16      0.30    0.13    0.33
  YS02001759YS02001757 CONDUIT    465.14     0  02:54      0.59    0.33    1.00
  YS02001762YS02001759 CONDUIT    242.04     0  02:54      0.31    0.28    1.00
  YS02001765YS02001762 CONDUIT    241.12     0  02:54      0.31    0.23    1.00
  YS02001770YS02001767 CONDUIT    238.75     0  02:54      0.38    0.95    1.00
  YS02001774YS02001770 CONDUIT     60.31     0  03:19      0.24    0.04    1.00
  YS02001779YS02001774 CONDUIT     60.74     0  03:19      0.08    0.03    1.00
  YS02001649YS02001757 CONDUIT    744.96     0  02:57      0.95    0.45    1.00
  YS02001767YS02001765 CONDUIT    240.12     0  02:54      0.35    0.30    1.00
  YS02006561YS02001783 CONDUIT    758.43     0  02:37      2.13    0.39    0.85
  YS02001783YS02001784 CONDUIT    752.34     0  03:04      1.61    1.04    1.00
  YS02001784YS02001785 CONDUIT    753.28     0  03:04      1.74    1.75    1.00
  YS02001788YS02001790 CONDUIT    753.41     0  03:03      2.27    0.56    1.00
  YS02001790YS02001791 CONDUIT    753.64     0  03:04      2.77    0.82    1.00
  YS02001791YS02001793 CONDUIT    753.72     0  03:04      5.60    0.32    1.00
  YS02001910YS02001907 CONDUIT    270.96     0  03:10      0.49    0.15    1.00
  YS02001786YS02001788 CONDUIT    753.27     0  03:04      2.19    1.45    1.00
  YS02001915YS02001910 CONDUIT    268.54     0  03:09      0.56    0.13    0.91
  YS02001918YS02001915 CONDUIT    113.61     0  03:15      0.44    0.06    0.66
  YS02001923YS02001920 CONDUIT    114.31     0  03:04      0.64    0.05    0.41
  YS02001926YS02001923 CONDUIT     91.45     0  03:01      0.74    0.13    0.21
  YS02001929YS02001926 CONDUIT     91.54     0  03:01      0.81    0.04    0.20
  YS02001920YS02001918 CONDUIT    118.45     0  03:15      0.63    0.11    0.51
  YS02001629YS02163301 CONDUIT    199.01     0  02:11      0.25    0.25    1.00
  YS02001619YS02001622 CONDUIT    182.01     0  02:10      0.65    0.27    1.00
  YS02001622YS02001625 CONDUIT    189.37     0  02:27      0.32    0.10    1.00
  YS02001625YS02001629 CONDUIT    189.25     0  02:27      0.26    0.09    1.00
  YS02163301YS02001633 CONDUIT    198.75     0  02:11      0.25    0.19    1.00
  YS02163601YS02164001 CONDUIT    364.83     0  02:40      0.46    0.32    1.00
  YS02164001YS02001641 CONDUIT    364.92     0  02:40      0.46    0.50    1.00
  YS02001641YS02001644 CONDUIT    365.12     0  02:40      0.46    1.18    1.00
  YS02001647YS02001649 CONDUIT    548.60     0  02:58      0.70    0.29    1.00
  YS02006553YS02006556 CONDUIT    525.96     0  03:06      0.67    0.45    1.00
  YS02006556YS02006558 CONDUIT    526.01     0  03:06      0.67    0.42    1.00
  YSB6556YSB1171       CONDUIT     16.50     0  01:50      0.07    0.02    0.60
  YS02001907YS02006553 CONDUIT    525.95     0  03:06      0.58    0.62    1.00
  YS02006558YS02006561 CONDUIT    752.78     0  03:02      3.18    1.66    0.97
  YS02001633YS02163601 CONDUIT    364.59     0  02:40      0.46    0.38    1.00
  YS02001644YS02001647 CONDUIT    548.13     0  02:58      0.70    0.32    1.00
  YS02001745YS02001748 CONDUIT    593.44     0  02:43      1.51    0.23    0.93
  YS02001748YS02001751 CONDUIT    359.30     0  02:28      1.12    0.18    1.00
  YS02001751YS02001754 CONDUIT    240.24     0  02:21      0.97    0.12    1.00
  YS02001754YS02001757 CONDUIT    240.87     0  02:21      0.33    0.10    1.00
  YS02001882YS02001884 CONDUIT     21.77     0  02:39      0.12    0.02    0.86
  YS02001884YS02001887 CONDUIT     39.11     0  02:39      0.09    0.05    0.96
  YS02001890YS02001895 CONDUIT    286.66     0  02:40      0.45    0.13    0.90
  YS02001895YS02001898 CONDUIT    282.37     0  02:40      0.56    0.49    0.79
  YS02001898YS02001901 CONDUIT    276.01     0  02:40      0.47    0.18    0.87
  YS02001901YS02001904 CONDUIT    266.74     0  03:02      0.44    0.41    0.92
  YS02001904YS02001907 CONDUIT    271.63     0  02:28      0.38    0.10    0.96
  YS02001887YS02001890 CONDUIT    283.11     0  02:39      0.40    0.48    1.00
  YS02001652YS02001649 CONDUIT    284.33     0  02:22      0.58    0.14    1.00
  YS02001655YS02001652 CONDUIT    281.14     0  02:22      1.05    0.14    1.00
  YS02001658YS02001655 CONDUIT    474.88     0  02:22      1.29    0.20    1.00
  YS02001661YS02001658 CONDUIT    621.20     0  02:36      1.59    0.24    1.00
  YS02001664YS02001661 CONDUIT    608.50     0  03:00      1.53    0.19    0.71
  YSB1154YSB6556       CONDUIT     16.24     0  01:49      0.16    0.03    0.49
  YSB1174YSB1171       CONDUIT     13.23     0  01:45      0.06    0.02    0.61
  YSB1171HS02004479    CONDUIT     29.01     0  01:50      0.54    0.02    0.47
  HS02004881HS02006253 CONDUIT     49.92     0  01:50      1.76    0.01    0.28
  YS02001793JiankangQianchi CONDUIT    915.64     0  02:33     13.26    0.07    1.00
  YS02001757CaochengTiaoxuchi CONDUIT   1377.12     0  02:56      2.36    0.60    1.00
  WSF200WS02003060     CONDUIT    586.72     0  02:01      1.79    0.13    0.35
  1                    CONDUIT    970.43     0  02:15      3.30    0.34    0.40
  2                    CONDUIT    186.85     0  02:11      5.74    0.45    0.47
  3                    CONDUIT    597.65     0  00:00     10.05    0.95    0.86
  4                    CONDUIT      0.00     0  00:00      0.00    0.00    0.00
  CC-Pump-1            PUMP       200.00     0  01:50              1.00
  CC-Pump-2            PUMP       200.00     0  01:43              1.00
  JK-Pump-1            PUMP       300.00     0  00:00              1.00
  JK-Pump-2            PUMP       300.00     0  00:00              1.00
  XR-Pump-1            PUMP        95.00     0  00:00              1.00
  XR-Pump-2            PUMP        95.00     0  00:00              1.00
  XR-Pump-3            PUMP        95.00     0  00:00              1.00
  XR-Pump-4            PUMP        95.00     0  00:00              1.00
  
  
  ***************************
  Flow Classification Summary
  ***************************
  
  -------------------------------------------------------------------------------------
                      Adjusted    ---------- Fraction of Time in Flow Class ---------- 
                       /Actual         Up    Down  Sub   Sup   Up    Down  Norm  Inlet 
  Conduit               Length    Dry  Dry   Dry   Crit  Crit  Crit  Crit  Ltd   Ctrl  
  -------------------------------------------------------------------------------------
  WS02003066WSF200        1.00   0.02  0.04  0.00  0.00  0.94  0.00  0.00  0.60  0.00
  WS02006287WS02006284    1.00   0.03  0.01  0.00  0.59  0.37  0.00  0.00  0.70  0.00
  WS02006284WS02006280    1.00   0.03  0.00  0.00  0.00  0.00  0.00  0.97  0.00  0.00
  WS02006280WS02006229    1.00   0.03  0.00  0.00  0.00  0.00  0.00  0.97  0.00  0.00
  WS02006229WS02006228    1.00   0.00  0.00  0.00  0.99  0.00  0.00  0.01  0.00  0.00
  WS02006256WS02006235    1.00   0.00  0.00  0.00  1.00  0.00  0.00  0.00  0.00  0.00
  WS02006253WS02006251    1.00   0.02  0.01  0.00  0.97  0.00  0.00  0.00  0.00  0.00
  WS02006252WS02006251    1.00   0.05  0.00  0.00  0.00  0.00  0.95  0.00  0.00  0.00
  WS02006251WS02006249    1.00   0.00  0.00  0.00  1.00  0.00  0.00  0.00  0.18  0.00
  WS02006249WS02006248    1.00   0.00  0.01  0.00  0.94  0.00  0.04  0.00  0.00  0.00
  WS02006248WS02006247    1.00   0.02  0.00  0.00  0.98  0.00  0.00  0.01  0.07  0.00
  WS02006247WS02006245    1.00   0.02  0.00  0.00  0.97  0.00  0.00  0.01  0.00  0.00
  WS02006245WS02006243    1.00   0.01  0.00  0.00  0.96  0.00  0.00  0.03  0.01  0.00
  WS02006243WS02006242    1.00   0.01  0.00  0.00  0.99  0.00  0.00  0.00  0.17  0.00
  WS02006242WS02006240    1.00   0.00  0.00  0.00  0.99  0.00  0.00  0.00  0.00  0.00
  WS02006240WS02006239    1.00   0.00  0.00  0.00  0.97  0.00  0.00  0.03  0.02  0.00
  WS02006239WS02006238    1.00   0.00  0.00  0.00  1.00  0.00  0.00  0.00  0.00  0.00
  WS02006238WS02006235    1.00   0.00  0.00  0.00  1.00  0.00  0.00  0.00  0.00  0.00
  WS02006235WS02006234    1.00   0.00  0.00  0.00  0.97  0.00  0.03  0.00  0.00  0.00
  WS02006234WS02006232    1.00   0.00  0.00  0.00  1.00  0.00  0.00  0.00  0.00  0.00
  WS02006232WS02006231    1.00   0.00  0.00  0.00  0.99  0.00  0.01  0.00  0.00  0.00
  WS02006231WS02006230    1.00   0.00  0.00  0.00  0.93  0.00  0.07  0.00  0.00  0.00
  WS02006230WS02006229    1.00   0.00  0.00  0.00  0.99  0.00  0.00  0.01  0.01  0.00
  WS02006228WS02006109    1.00   0.00  0.00  0.00  1.00  0.00  0.00  0.00  0.00  0.00
  WS02006116WS02004401    1.00   0.02  0.00  0.00  0.98  0.00  0.00  0.00  0.00  0.00
  WS02006115WS02006116    1.00   0.02  0.00  0.00  0.97  0.00  0.00  0.01  0.01  0.00
  WS02006113WS02006111    1.00   0.02  0.00  0.00  0.00  0.98  0.00  0.00  0.08  0.00
  WS02006112WS02006115    1.00   0.02  0.00  0.00  0.98  0.00  0.00  0.00  0.00  0.00
  WS02006111WS02006112    1.00   0.02  0.00  0.00  0.98  0.00  0.00  0.00  0.98  0.00
  WS02006110WS02006113    1.00   0.01  0.00  0.00  0.98  0.00  0.00  0.00  0.00  0.00
  WS02006109WS02006110    1.00   0.00  0.01  0.00  0.99  0.00  0.00  0.00  0.00  0.00
  WS02004411WS02004412    1.00   0.04  0.00  0.00  0.96  0.00  0.00  0.00  0.00  0.00
  WS02004401WS02004402    1.00   0.02  0.00  0.00  0.98  0.00  0.00  0.00  0.00  0.00
  WS02004413WS02003067    1.00   0.04  0.01  0.00  0.00  0.00  0.94  0.00  0.00  0.00
  WS02004412WS02004413    1.00   0.04  0.00  0.00  0.95  0.00  0.00  0.00  0.00  0.00
  WS02004410WS02004411    1.00   0.04  0.00  0.00  0.96  0.00  0.00  0.00  0.00  0.00
  WS02004409WS02004410    1.00   0.04  0.00  0.00  0.96  0.00  0.00  0.00  0.00  0.00
  WS02004407WS02004409    1.00   0.04  0.00  0.00  0.96  0.00  0.00  0.00  0.81  0.00
  WS02004406WS02004407    1.00   0.00  0.04  0.00  0.96  0.00  0.00  0.00  0.00  0.00
  WS02004405WS02004406    1.00   0.00  0.00  0.00  1.00  0.00  0.00  0.00  0.02  0.00
  WS02004404WS02004405    1.00   0.00  0.00  0.00  1.00  0.00  0.00  0.00  0.00  0.00
  WS02004403WS02004404    1.00   0.00  0.02  0.00  0.98  0.00  0.00  0.00  0.02  0.00
  WS02004402WS02004403    1.00   0.02  0.00  0.00  0.98  0.00  0.00  0.00  0.00  0.00
  WS02004139WS02001211    1.00   0.00  0.00  0.00  1.00  0.00  0.00  0.00  0.00  0.00
  WS02004138WS02004139    1.00   0.00  0.00  0.00  0.99  0.01  0.00  0.00  1.00  0.00
  WS02003067WS02003066    1.00   0.06  0.01  0.00  0.94  0.00  0.00  0.00  0.00  0.00
  WS02001213WS02003059    1.00   0.00  0.00  0.00  0.99  0.00  0.00  0.00  0.00  0.00
  WS02001212WS02001213    1.00   0.00  0.00  0.00  0.92  0.00  0.07  0.00  0.00  0.00
  WS02001211WS02001212    1.00   0.00  0.00  0.00  1.00  0.00  0.00  0.00  0.00  0.00
  WS02003072WS02003073    1.00   0.00  0.00  0.00  0.00  0.00  0.00  1.00  0.00  0.00
  WS02003069WS02003072    1.00   0.00  0.00  0.00  0.99  0.01  0.00  0.00  0.09  0.00
  WS02003060WS02003069    1.00   0.00  0.00  0.00  0.99  0.01  0.00  0.00  0.05  0.00
  WS02003059WS02003060    1.00   0.00  0.00  0.00  0.99  0.01  0.00  0.00  0.00  0.00
  HS02004901HS02004770    1.00   0.03  0.00  0.00  0.97  0.00  0.00  0.00  0.00  0.00
  HS02004876HS02004881    1.00   0.02  0.00  0.00  0.98  0.00  0.00  0.00  0.00  0.00
  HS02004870HS02004876    1.00   0.01  0.00  0.00  0.99  0.00  0.00  0.00  0.95  0.00
  HS02004842HS02004848    1.00   0.00  0.03  0.00  0.97  0.00  0.00  0.00  0.58  0.00
  HS02004837HS02004842    1.00   0.00  0.00  0.00  0.99  0.01  0.00  0.00  0.11  0.00
  HS02004830HS02004837    1.00   0.00  0.00  0.00  1.00  0.00  0.00  0.00  0.99  0.00
  HS02004824HS02004830    1.00   0.00  0.00  0.00  1.00  0.00  0.00  0.00  0.00  0.00
  HS02004817HS02004824    1.00   0.00  0.00  0.00  1.00  0.00  0.00  0.00  1.00  0.00
  HS02004770HS02004777    1.00   0.00  0.03  0.00  0.97  0.00  0.00  0.00  0.03  0.00
  HS02004799HS02004480    1.00   0.00  0.01  0.00  0.96  0.00  0.02  0.00  0.00  0.00
  HS02004792HS02004799    1.00   0.00  0.00  0.00  0.99  0.01  0.00  0.00  0.98  0.00
  HS02004788HS02004792    1.00   0.00  0.00  0.00  0.99  0.01  0.00  0.00  0.98  0.00
  HS02004785HS02004788    1.00   0.00  0.00  0.00  1.00  0.00  0.00  0.00  0.00  0.00
  HS02004777HS02004785    1.00   0.00  0.00  0.00  1.00  0.00  0.00  0.00  0.12  0.00
  HS02004480HS02004478    1.00   0.03  0.00  0.00  0.65  0.00  0.00  0.32  0.00  0.00
  HS02004479HS02004480    1.00   0.02  0.00  0.00  0.98  0.00  0.00  0.00  0.12  0.00
  HS02004862HS02004870    1.00   0.00  0.00  0.00  1.00  0.00  0.00  0.00  0.04  0.00
  HS02004848HS02004852    1.00   0.03  0.00  0.00  0.97  0.00  0.00  0.00  0.77  0.00
  HS02004856HS02004862    1.00   0.00  0.04  0.00  0.96  0.00  0.00  0.00  0.83  0.00
  HS02004852HS02004856    1.00   0.03  0.00  0.00  0.97  0.00  0.00  0.00  0.86  0.00
  HS02004802HS02004478    1.00   0.03  0.00  0.00  0.97  0.00  0.00  0.00  0.03  0.00
  HS02004478WS02006287    1.00   0.04  0.00  0.00  0.72  0.24  0.00  0.00  0.68  0.00
  HS02004817HS02004807    1.00   0.00  0.03  0.00  0.97  0.00  0.00  0.00  0.01  0.00
  HS02004807HS02004802    1.00   0.03  0.00  0.00  0.97  0.00  0.00  0.00  0.00  0.00
  YS02001759YS02001757    1.00   0.00  0.00  0.00  1.00  0.00  0.00  0.00  0.16  0.00
  YS02001762YS02001759    1.00   0.00  0.00  0.00  1.00  0.00  0.00  0.00  0.03  0.00
  YS02001765YS02001762    1.00   0.00  0.00  0.00  1.00  0.00  0.00  0.00  0.14  0.00
  YS02001770YS02001767    1.00   0.00  0.00  0.00  1.00  0.00  0.00  0.00  0.00  0.00
  YS02001774YS02001770    1.00   0.00  0.03  0.00  0.97  0.00  0.00  0.00  0.03  0.00
  YS02001779YS02001774    1.00   0.00  0.00  0.00  1.00  0.00  0.00  0.00  0.18  0.00
  YS02001649YS02001757    1.00   0.00  0.00  0.00  1.00  0.00  0.00  0.00  0.16  0.00
  YS02001767YS02001765    1.00   0.00  0.00  0.00  1.00  0.00  0.00  0.00  0.00  0.00
  YS02006561YS02001783    1.00   0.04  0.00  0.00  0.21  0.75  0.00  0.00  0.57  0.00
  YS02001783YS02001784    1.00   0.00  0.04  0.00  0.96  0.00  0.00  0.00  0.00  0.00
  YS02001784YS02001785    1.00   0.00  0.00  0.00  1.00  0.00  0.00  0.00  0.17  0.00
  YS02001788YS02001790    1.00   0.00  0.00  0.00  0.25  0.75  0.00  0.00  0.52  0.00
  YS02001790YS02001791    1.00   0.00  0.00  0.00  0.23  0.77  0.00  0.00  0.59  0.00
  YS02001791YS02001793    1.00   0.00  0.00  0.00  0.23  0.77  0.00  0.00  0.01  0.00
  YS02001910YS02001907    1.00   0.00  0.00  0.00  0.98  0.00  0.00  0.02  0.12  0.00
  YS02001786YS02001788    1.00   0.00  0.00  0.00  0.25  0.75  0.00  0.00  0.00  0.00
  YS02001915YS02001910    1.00   0.00  0.00  0.00  0.99  0.01  0.00  0.00  0.16  0.00
  YS02001918YS02001915    1.00   0.00  0.01  0.00  0.99  0.00  0.00  0.00  0.60  0.00
  YS02001923YS02001920    1.00   0.00  0.00  0.00  1.00  0.00  0.00  0.00  0.93  0.00
  YS02001926YS02001923    1.00   0.00  0.02  0.00  0.00  0.00  0.98  0.00  0.00  0.00
  YS02001929YS02001926    1.00   0.00  0.03  0.00  0.97  0.00  0.00  0.00  0.87  0.00
  YS02001920YS02001918    1.00   0.00  0.01  0.00  0.99  0.00  0.00  0.00  0.00  0.00
  YS02001629YS02163301    1.00   0.04  0.00  0.00  0.96  0.00  0.00  0.00  0.00  0.00
  YS02001619YS02001622    1.00   0.03  0.00  0.00  0.97  0.00  0.00  0.00  0.00  0.00
  YS02001622YS02001625    1.00   0.03  0.00  0.00  0.97  0.00  0.00  0.00  0.04  0.00
  YS02001625YS02001629    1.00   0.03  0.01  0.00  0.94  0.00  0.01  0.00  0.00  0.00
  YS02163301YS02001633    1.00   0.00  0.04  0.00  0.96  0.00  0.00  0.00  0.00  0.00
  YS02163601YS02164001    1.00   0.00  0.02  0.00  0.98  0.00  0.00  0.00  0.00  0.00
  YS02164001YS02001641    1.00   0.01  0.01  0.00  0.97  0.00  0.00  0.00  0.06  0.00
  YS02001641YS02001644    1.00   0.00  0.01  0.00  0.99  0.00  0.00  0.00  0.00  0.00
  YS02001647YS02001649    1.00   0.00  0.04  0.00  0.96  0.00  0.00  0.00  0.01  0.00
  YS02006553YS02006556    1.00   0.01  0.00  0.00  0.99  0.00  0.00  0.00  0.03  0.00
  YS02006556YS02006558    1.00   0.00  0.00  0.00  1.00  0.00  0.00  0.00  0.00  0.00
  YSB6556YSB1171          1.00   0.02  0.01  0.00  0.97  0.00  0.00  0.00  0.00  0.00
  YS02001907YS02006553    1.00   0.00  0.01  0.00  0.98  0.00  0.00  0.00  0.00  0.00
  YS02006558YS02006561    1.00   0.04  0.00  0.00  0.06  0.90  0.00  0.00  0.52  0.00
  YS02001633YS02163601    1.00   0.00  0.01  0.00  0.99  0.00  0.00  0.00  0.15  0.00
  YS02001644YS02001647    1.00   0.00  0.04  0.00  0.96  0.00  0.00  0.00  0.00  0.00
  YS02001745YS02001748    1.00   0.00  0.00  0.00  0.91  0.01  0.00  0.08  0.06  0.00
  YS02001748YS02001751    1.00   0.00  0.00  0.00  0.98  0.02  0.00  0.00  0.14  0.00
  YS02001751YS02001754    1.00   0.00  0.00  0.00  0.96  0.00  0.00  0.04  0.02  0.00
  YS02001754YS02001757    1.00   0.00  0.00  0.00  0.99  0.01  0.00  0.00  0.18  0.00
  YS02001882YS02001884    1.00   0.04  0.00  0.00  0.96  0.00  0.00  0.00  0.00  0.00
  YS02001884YS02001887    1.00   0.02  0.01  0.00  0.97  0.00  0.00  0.00  0.00  0.00
  YS02001890YS02001895    1.00   0.00  0.03  0.00  0.96  0.00  0.00  0.00  0.00  0.00
  YS02001895YS02001898    1.00   0.04  0.00  0.00  0.96  0.00  0.00  0.00  0.00  0.00
  YS02001898YS02001901    1.00   0.04  0.00  0.00  0.96  0.00  0.00  0.00  0.01  0.00
  YS02001901YS02001904    1.00   0.04  0.00  0.00  0.96  0.00  0.00  0.00  0.00  0.00
  YS02001904YS02001907    1.00   0.00  0.03  0.00  0.96  0.00  0.00  0.00  0.00  0.00
  YS02001887YS02001890    1.00   0.00  0.00  0.00  0.98  0.00  0.01  0.00  0.00  0.00
  YS02001652YS02001649    1.00   0.00  0.00  0.00  1.00  0.00  0.00  0.00  0.16  0.00
  YS02001655YS02001652    1.00   0.00  0.00  0.00  0.96  0.00  0.00  0.04  0.02  0.00
  YS02001658YS02001655    1.00   0.00  0.03  0.00  0.94  0.02  0.00  0.00  0.05  0.00
  YS02001661YS02001658    1.00   0.03  0.00  0.00  0.91  0.06  0.00  0.00  0.06  0.00
  YS02001664YS02001661    1.00   0.03  0.00  0.00  0.85  0.12  0.00  0.00  0.24  0.00
  YSB1154YSB6556          1.00   0.03  0.00  0.00  0.97  0.00  0.00  0.00  0.02  0.00
  YSB1174YSB1171          1.00   0.02  0.01  0.00  0.97  0.00  0.00  0.00  0.00  0.00
  YSB1171HS02004479       1.00   0.02  0.00  0.00  0.98  0.00  0.00  0.00  0.10  0.00
  HS02004881HS02006253    1.00   0.02  0.00  0.00  0.89  0.01  0.00  0.07  0.76  0.00
  YS02001793JiankangQianchi    1.00   0.00  0.00  0.00  0.43  0.56  0.00  0.00  0.17  0.00
  YS02001757CaochengTiaoxuchi    1.00   0.00  0.05  0.00  0.92  0.03  0.00  0.00  0.00  0.00
  WSF200WS02003060        1.00   0.00  0.02  0.00  0.90  0.08  0.00  0.00  0.13  0.00
  1                       1.00   0.00  0.00  0.00  0.00  1.00  0.00  0.00  0.37  0.00
  2                       1.00   0.30  0.00  0.00  0.00  0.70  0.00  0.00  0.10  0.00
  3                       1.00   0.04  0.00  0.00  0.00  0.96  0.00  0.00  0.01  0.00
  4                       1.00   1.00  0.00  0.00  0.00  0.00  0.00  0.00  0.00  0.00
  
  
  *************************
  Conduit Surcharge Summary
  *************************
  
  ----------------------------------------------------------------------------
                                                           Hours        Hours 
                         --------- Hours Full --------   Above Full   Capacity
  Conduit                Both Ends  Upstream  Dnstream   Normal Flow   Limited
  ----------------------------------------------------------------------------
  WS02006229WS02006228        4.22      4.60      4.22      6.13         4.22
  WS02006256WS02006235        6.28      6.28      7.83      1.78         0.01
  WS02006253WS02006251        0.01      0.01      0.55      0.01         0.01
  WS02006252WS02006251        3.42      3.42      4.76      4.42         0.01
  WS02006251WS02006249        0.01      0.01      0.01      3.43         0.01
  WS02006249WS02006248        0.01      0.01      0.01      5.79         0.01
  WS02006247WS02006245        0.01      0.23      0.01      5.93         0.01
  WS02006245WS02006243        0.01      0.01      0.83      0.01         0.01
  WS02006243WS02006242        1.05      1.05      3.43      0.01         0.01
  WS02006242WS02006240        1.33      1.33      4.04      4.85         0.01
  WS02006240WS02006239        1.47      1.47      1.60      0.03         0.01
  WS02006239WS02006238        3.85      3.85      4.04      0.52         0.49
  WS02006238WS02006235        3.83      3.83      4.48      0.01         0.01
  WS02006235WS02006234        1.16      1.16      3.05      6.30         0.01
  WS02006234WS02006232        1.56      1.56      4.63      0.01         0.01
  WS02006232WS02006231        0.68      0.68      4.63      0.01         0.01
  WS02006231WS02006230        0.01      0.01      0.96      6.26         0.01
  WS02006230WS02006229        5.92      6.07      5.92      6.33         5.92
  WS02006228WS02006109        4.41      5.37      4.41      6.22         4.41
  WS02006112WS02006115        0.01      0.01      1.24      0.01         0.01
  WS02006111WS02006112        0.01      0.01      6.13      0.01         0.01
  WS02006110WS02006113        0.01      0.01      4.94      0.01         0.01
  WS02006109WS02006110        1.17      1.17      5.37      1.17         0.01
  WS02004405WS02004406        0.01      0.01      0.01      1.22         0.01
  WS02004404WS02004405        0.01      0.01      0.01      6.23         0.01
  WS02003072WS02003073        0.01      0.01      0.01      6.04         0.01
  YS02001759YS02001757        5.96      5.96      6.03      0.01         0.01
  YS02001762YS02001759        5.94      5.94      5.96      0.01         0.01
  YS02001765YS02001762        5.89      5.89      5.94      0.01         0.01
  YS02001770YS02001767        5.73      5.75      5.75      0.01         0.91
  YS02001774YS02001770        5.72      5.72      5.93      0.01         0.01
  YS02001779YS02001774        5.54      5.54      5.93      0.01         0.01
  YS02001649YS02001757        5.94      5.94      6.03      0.01         0.01
  YS02001767YS02001765        5.75      5.75      5.89      0.01         0.01
  YS02006561YS02001783        0.01      0.01      0.79      0.01         0.01
  YS02001783YS02001784        0.79      0.79      0.85      0.30         0.25
  YS02001784YS02001785        0.79      0.85      0.79      1.92         0.79
  YS02001788YS02001790        0.79      0.79      1.25      0.01         0.01
  YS02001790YS02001791        1.25      1.25      1.28      0.01         0.01
  YS02001791YS02001793        1.28      1.28      1.40      0.01         0.01
  YS02001910YS02001907        0.20      0.20      1.23      0.01         0.01
  YS02001786YS02001788        0.78      0.79      0.79      1.45         0.78
  YS02001915YS02001910        0.01      0.01      0.20      0.01         0.01
  YS02001629YS02163301        5.70      5.70      5.75      0.01         0.01
  YS02001619YS02001622        5.25      5.25      5.34      0.01         0.02
  YS02001622YS02001625        5.34      5.34      5.68      0.01         0.01
  YS02001625YS02001629        5.28      5.28      5.68      0.01         0.01
  YS02163301YS02001633        5.75      5.75      5.92      0.01         0.01
  YS02163601YS02164001        5.89      5.89      5.95      0.01         0.01
  YS02164001YS02001641        5.89      5.89      5.92      0.01         0.04
  YS02001641YS02001644        5.92      5.92      5.92      0.65         1.19
  YS02001647YS02001649        5.62      5.62      5.94      0.01         0.01
  YS02006553YS02006556        0.64      0.64      1.31      0.01         0.01
  YS02006556YS02006558        1.00      1.00      1.41      0.01         0.01
  YS02001907YS02006553        1.92      1.92      2.14      0.01         0.01
  YS02006558YS02006561        0.01      0.59      0.01      1.76         0.01
  YS02001633YS02163601        5.87      5.87      5.95      0.01         0.01
  YS02001644YS02001647        5.62      5.62      5.92      0.01         0.01
  YS02001745YS02001748        0.01      0.01      4.10      0.01         0.01
  YS02001748YS02001751        4.49      4.49      5.26      0.01         0.01
  YS02001751YS02001754        5.26      5.26      5.54      0.01         0.01
  YS02001754YS02001757        5.61      5.61      6.03      0.01         0.01
  YS02001890YS02001895        0.01      0.01      0.25      0.01         0.01
  YS02001904YS02001907        0.01      0.01      1.34      0.01         0.01
  YS02001887YS02001890        0.01      0.01      0.14      0.01         0.01
  YS02001652YS02001649        5.65      5.65      5.94      0.01         0.01
  YS02001655YS02001652        5.29      5.29      5.59      0.01         0.01
  YS02001658YS02001655        4.16      4.16      5.29      0.01         0.01
  YS02001661YS02001658        0.16      0.16      4.16      0.01         0.01
  YS02001664YS02001661        0.01      0.01      0.76      0.01         0.01
  YS02001793JiankangQianchi        1.37      1.37      2.46      0.01         0.01
  YS02001757CaochengTiaoxuchi        4.59      4.59      6.03      0.01         0.01
  3                           0.01      0.01      0.01      0.01         0.01
  
  
  ***************
  Pumping Summary
  ***************
  
  ---------------------------------------------------------------------------------------------------------
                                                  Min       Avg       Max     Total     Power    % Time Off
                        Percent   Number of      Flow      Flow      Flow    Volume     Usage    Pump Curve
  Pump                 Utilized   Start-Ups       LPS       LPS       LPS  10^6 ltr     Kw-hr    Low   High
  ---------------------------------------------------------------------------------------------------------
  CC-Pump-1               76.87           3      0.00    165.89    200.00     3.660      7.34    0.0   11.8
  CC-Pump-2               76.87           2      0.00    160.48    200.00     3.527      7.21    0.0   11.8
  JK-Pump-1               82.98           5      0.00    177.25    300.00     3.220     47.24    0.0    0.0
  JK-Pump-2              100.00           2      0.00    208.09    300.00     4.719     64.25    0.0    0.0
  XR-Pump-1               95.74           3      0.00     82.35     95.00     2.252     28.34    0.0    0.0
  XR-Pump-2               95.74           3      0.00     76.27     95.00     2.081     26.53    0.0    0.0
  XR-Pump-3               97.87           4      0.00     81.07     95.00     2.223     27.47    0.0    0.0
  XR-Pump-4               95.74           6      0.00     76.35     95.00     2.109     26.04    0.0    0.0
  

  Analysis begun on:  Wed Dec 22 15:35:51 2021
  Analysis ended on:  Wed Dec 22 15:35:55 2021
  Total elapsed time: 00:00:04