
  EPA STORM WATER MANAGEMENT MODEL - VERSION 5.1 (Build 5.3.0.dev0)
  --------------------------------------------------------------

  WARNING 04: minimum elevation drop used for Conduit WS02004404WS02004405
  WARNING 03: negative offset ignored for Link YS02001904YS02001907
  
  *********************************************************
  NOTE: The summary statistics displayed in this report are
  based on results found at every computational time step,  
  not just on results from each reporting time step.
  *********************************************************
  
  ****************
  Analysis Options
  ****************
  Flow Units ............... LPS
  Process Models:
    Rainfall/Runoff ........ YES
    RDII ................... NO
    Snowmelt ............... NO
    Groundwater ............ NO
    Flow Routing ........... YES
    Ponding Allowed ........ NO
    Water Quality .......... NO
  Infiltration Method ...... HORTON
  Flow Routing Method ...... DYNWAVE
  Surcharge Method ......... EXTRAN
  Starting Date ............ 08/28/2015 08:00:00
  Ending Date .............. 08/28/2015 15:50:00
  Antecedent Dry Days ...... 8.0
  Report Time Step ......... 00:01:00
  Wet Time Step ............ 00:01:00
  Dry Time Step ............ 00:01:00
  Routing Time Step ........ 5.00 sec
  Variable Time Step ....... YES
  Maximum Trials ........... 8
  Number of Threads ........ 4
  Head Tolerance ........... 0.001500 m
  
  
  **************************        Volume         Depth
  Runoff Quantity Continuity     hectare-m            mm
  **************************     ---------       -------
  Total Precipitation ......         7.641        16.729
  Evaporation Loss .........         0.000         0.000
  Infiltration Loss ........         1.880         4.117
  Surface Runoff ...........         4.668        10.221
  Final Storage ............         1.093         2.393
  Continuity Error (%) .....        -0.013
  
  
  **************************        Volume        Volume
  Flow Routing Continuity        hectare-m      10^6 ltr
  **************************     ---------     ---------
  Dry Weather Inflow .......         0.616         6.165
  Wet Weather Inflow .......         4.667        46.672
  Groundwater Inflow .......         0.000         0.000
  RDII Inflow ..............         0.000         0.000
  External Inflow ..........         0.102         1.024
  External Outflow .........         1.017        10.172
  Flooding Loss ............         3.795        37.947
  Evaporation Loss .........         0.000         0.000
  Exfiltration Loss ........         0.000         0.000
  Initial Stored Volume ....         0.076         0.761
  Final Stored Volume ......         0.655         6.550
  Continuity Error (%) .....        -0.086
  
  
  *************************
  Highest Continuity Errors
  *************************
  Node HS02004842 (12.71%)
  Node YS02001884 (9.34%)
  Node HS02004817 (2.32%)
  Node YSB1171 (2.18%)
  Node YS02163301 (1.64%)
  
  
  ***************************
  Time-Step Critical Elements
  ***************************
  Link WS02006252WS02006251 (54.02%)
  Link 3 (28.23%)
  Link WS02006280WS02006229 (6.48%)
  Link WS02006238WS02006235 (3.05%)
  Link YS02006556YS02006558 (1.04%)
  
  
  ********************************
  Highest Flow Instability Indexes
  ********************************
  Link WS02006113WS02006111 (43)
  Link YS02163601YS02164001 (29)
  Link YS02163301YS02001633 (29)
  Link YS02001629YS02163301 (28)
  Link YS02001619YS02001622 (28)
  
  
  *************************
  Routing Time Step Summary
  *************************
  Minimum Time Step           :     0.50 sec
  Average Time Step           :     1.08 sec
  Maximum Time Step           :     5.00 sec
  Percent in Steady State     :    -0.00
  Average Iterations per Step :     3.67
  Percent Not Converging      :    13.67
  
  
  ***************************
  Subcatchment Runoff Summary
  ***************************
  
  ------------------------------------------------------------------------------------------------------------------------------
                            Total      Total      Total      Total     Imperv       Perv      Total       Total     Peak  Runoff
                           Precip      Runon       Evap      Infil     Runoff     Runoff     Runoff      Runoff   Runoff   Coeff
  Subcatchment                 mm         mm         mm         mm         mm         mm         mm    10^6 ltr      LPS
  ------------------------------------------------------------------------------------------------------------------------------
  sub0                      16.73       0.00       0.00       0.97      14.29       0.20      14.50        0.01     3.66   0.867
  sub1                      16.73       0.00       0.00       1.58      13.63       0.26      13.89        0.09    24.51   0.830
  sub2                      16.73       0.00       0.00       5.80       9.63       0.39      10.02        0.09    22.91   0.599
  sub3                      16.73       0.00       0.00       5.88       9.59       0.31       9.90        0.22    50.49   0.592
  sub4                      16.73       0.00       0.00       1.65      13.47       0.19      13.66        0.28    60.01   0.817
  sub5                      16.73       0.00       0.00       0.99      14.24       0.18      14.42        0.16    43.61   0.862
  sub7                      16.73       0.00       0.00       1.26      13.97       0.24      14.21        0.05    13.82   0.849
  sub8                      16.73       0.00       0.00       1.27      13.96       0.23      14.19        0.09    25.44   0.848
  sub9                      16.73       0.00       0.00       1.27      13.96       0.23      14.19        0.07    19.02   0.848
  sub10                     16.73       0.00       0.00       1.13      14.10       0.21      14.30        0.16    42.73   0.855
  sub11                     16.73       0.00       0.00       1.12      14.11       0.21      14.33        0.17    47.25   0.857
  sub12                     16.73       0.00       0.00       1.83      13.37       0.35      13.71        0.12    35.87   0.820
  sub14                     16.73       0.00       0.00       1.27      13.95       0.23      14.19        0.14    37.43   0.848
  sub15                     16.73       0.00       0.00       4.53      10.73       0.49      11.22        0.19    51.47   0.671
  sub16                     16.73       0.00       0.00       4.88      10.29       0.64      10.93        0.11    32.57   0.653
  sub17                     16.73       0.00       0.00       4.74      10.44       0.61      11.05        0.09    26.81   0.661
  sub22                     16.73       0.00       0.00       6.60       8.75       0.59       9.34        0.59   160.16   0.558
  sub23                     16.73       0.00       0.00       5.59       9.67       0.60      10.27        0.49   134.74   0.614
  sub60                     16.73       0.00       0.00       1.94      11.65       0.06      11.71        3.55   386.89   0.700
  sub61                     16.73       0.00       0.00       2.75      11.65       0.09      11.73        3.62   476.87   0.701
  sub62                     16.73       0.00       0.00       1.26      12.72       0.07      12.79        3.93   491.27   0.765
  sub63                     16.73       0.00       0.00       4.75      10.14       0.10      10.23        3.10   437.54   0.612
  sub64                     16.73       0.00       0.00       2.45      11.19       0.06      11.26        3.42   367.58   0.673
  sub65                     16.73       0.00       0.00       2.11      11.40       0.06      11.46        3.52   372.98   0.685
  sub66                     16.73       0.00       0.00       4.79       9.55       0.06       9.61        2.95   336.52   0.575
  sub67                     16.73       0.00       0.00       1.24      13.25       0.09      13.35        4.12   605.48   0.798
  sub68                     16.73       0.00       0.00       2.25      12.20       0.10      12.30        3.78   521.64   0.735
  sub69                     16.73       0.00       0.00       2.37      12.50       0.14      12.64        2.95   482.20   0.755
  sub70                     16.73      12.90       0.00       8.98      17.16       1.09      18.25        4.18   460.88   0.616
  sub71                     16.73       0.00       0.00       1.27      12.46       0.07      12.53        2.96   345.19   0.749
  sub72                     16.73       0.00       0.00       1.14      10.39       0.03      10.43        2.12   185.81   0.623
  sub73                     16.73      17.77       0.00       9.78      19.72       1.38      21.10        4.96   482.28   0.612
  sub74                     16.73       0.00       0.00      12.48       3.71       0.07       3.78        1.51   261.10   0.226
  
  
  ******************
  Node Depth Summary
  ******************
  
  ---------------------------------------------------------------------------------
                                 Average  Maximum  Maximum  Time of Max    Reported
                                   Depth    Depth      HGL   Occurrence   Max Depth
  Node                 Type       Meters   Meters   Meters  days hr:min      Meters
  ---------------------------------------------------------------------------------
  WS02001211           JUNCTION     0.49     0.67     5.51     0  06:03        0.67
  WS02001212           JUNCTION     0.25     0.39     5.45     0  06:03        0.39
  WS02001213           JUNCTION     0.47     0.68     5.44     0  02:02        0.68
  WS02003069           JUNCTION     0.32     0.57     5.15     0  02:03        0.57
  WS02003072           JUNCTION     0.39     0.63     5.00     0  02:04        0.63
  WS02003073           JUNCTION     0.22     0.38     4.45     0  02:04        0.38
  WS02003060           JUNCTION     0.29     0.50     5.43     0  02:02        0.50
  WS02003066           JUNCTION     0.20     0.35     5.91     0  01:58        0.35
  WS02003059           JUNCTION     0.54     0.75     5.44     0  02:03        0.75
  WS02003067           JUNCTION     0.51     0.78     6.10     0  01:58        0.78
  WS02004401           JUNCTION     0.61     1.10     7.10     0  01:54        1.10
  WS02004402           JUNCTION     0.64     1.11     7.07     0  01:55        1.10
  WS02004403           JUNCTION     0.66     1.10     7.03     0  01:55        1.09
  WS02004404           JUNCTION     0.74     1.16     7.01     0  01:55        1.15
  WS02004406           JUNCTION     0.74     1.11     6.94     0  01:53        1.10
  WS02004409           JUNCTION     0.42     0.84     6.61     0  01:57        0.84
  WS02004410           JUNCTION     0.44     0.84     6.56     0  01:57        0.84
  WS02004411           JUNCTION     0.45     0.84     6.52     0  01:58        0.84
  WS02004412           JUNCTION     0.47     0.83     6.47     0  01:58        0.83
  WS02004413           JUNCTION     0.63     0.97     6.44     0  01:58        0.97
  WS02004405           JUNCTION     0.73     1.13     6.98     0  01:55        1.13
  WS02006109           JUNCTION     0.68     1.24     7.86     0  01:55        1.23
  WS02006110           JUNCTION     0.68     1.10     7.68     0  01:56        1.09
  WS02006111           JUNCTION     0.20     0.59     7.29     0  01:55        0.59
  WS02006112           JUNCTION     0.77     1.38     7.26     0  01:55        1.37
  WS02006113           JUNCTION     0.29     0.60     7.49     0  01:55        0.60
  WS02006115           JUNCTION     0.50     1.05     7.19     0  01:55        1.05
  WS02006116           JUNCTION     0.58     1.11     7.15     0  01:54        1.11
  WS02006230           JUNCTION     0.63     1.37     8.12     0  01:50        1.34
  WS02006231           JUNCTION     0.41     1.01     8.13     0  01:50        0.97
  WS02006232           JUNCTION     0.53     1.15     8.19     0  01:50        1.05
  WS02006234           JUNCTION     0.43     1.09     8.25     0  01:50        0.94
  WS02006235           JUNCTION     0.45     1.06     8.23     0  01:50        0.94
  WS02006238           JUNCTION     0.48     1.09     8.23     0  01:50        0.96
  WS02006240           JUNCTION     0.38     1.11     8.40     0  01:50        0.84
  WS02006242           JUNCTION     0.43     1.27     8.54     0  01:50        0.88
  WS02006243           JUNCTION     0.31     1.25     8.67     0  01:51        0.76
  WS02006245           JUNCTION     0.30     0.70     8.19     0  01:53        0.69
  WS02006247           JUNCTION     0.32     0.76     8.26     0  01:51        0.69
  WS02006248           JUNCTION     0.28     0.63     8.22     0  01:51        0.61
  WS02006249           JUNCTION     0.31     0.62     8.21     0  01:51        0.60
  WS02006239           JUNCTION     0.43     1.11     8.32     0  01:50        0.91
  WS02006251           JUNCTION     0.30     0.63     8.30     0  02:40        0.62
  WS02006252           JUNCTION     0.24     0.59     8.83     0  03:59        0.59
  WS02006253           JUNCTION     0.32     0.66     8.30     0  02:40        0.65
  WS02006256           JUNCTION     0.81     1.19     8.13     0  06:30        1.19
  WS02004138           JUNCTION     0.08     0.17     7.41     0  06:00        0.17
  WS02004407           JUNCTION     0.19     0.36     6.68     0  01:56        0.36
  WS02006228           JUNCTION     0.68     1.35     8.01     0  01:54        1.34
  WS02006229           JUNCTION     0.66     1.39     8.08     0  01:54        1.39
  WS02006280           JUNCTION     0.08     0.25     8.52     0  01:55        0.25
  WS02006284           JUNCTION     0.38     0.64     9.04     0  01:55        0.64
  WS02006287           JUNCTION     0.11     0.38     9.33     0  01:54        0.38
  WSF200               JUNCTION     0.18     0.37     5.60     0  02:01        0.37
  HS02004901           JUNCTION     0.14     0.36    10.18     0  01:52        0.36
  HS02004881           JUNCTION     0.01     0.05     9.08     0  01:54        0.05
  HS02004876           JUNCTION     0.05     0.16     9.19     0  01:55        0.16
  HS02004870           JUNCTION     0.02     0.09     9.38     0  01:55        0.09
  HS02004862           JUNCTION     0.02     0.11     9.49     0  01:55        0.11
  HS02004856           JUNCTION     0.08     0.15     9.58     0  01:55        0.15
  HS02004852           JUNCTION     0.01     0.07     9.59     0  01:55        0.07
  HS02004848           JUNCTION     0.01     0.07     9.67     0  01:55        0.07
  HS02004842           JUNCTION     0.33     0.40     9.67     0  01:55        0.40
  HS02004837           JUNCTION     0.03     0.09     9.67     0  01:55        0.09
  HS02004830           JUNCTION     0.04     0.10     9.57     0  01:56        0.10
  HS02004824           JUNCTION     0.03     0.12     9.53     0  01:55        0.12
  HS02004817           JUNCTION     0.45     0.69     9.53     0  01:55        0.69
  HS02004807           JUNCTION     0.14     0.36     9.53     0  01:55        0.36
  HS02004802           JUNCTION     0.17     0.39     9.52     0  01:55        0.39
  HS02004799           JUNCTION     0.14     0.45     9.66     0  01:53        0.45
  HS02004792           JUNCTION     0.04     0.20     9.73     0  01:52        0.20
  HS02004788           JUNCTION     0.03     0.15    10.05     0  01:53        0.15
  HS02004785           JUNCTION     0.06     0.23    10.14     0  01:52        0.23
  HS02004777           JUNCTION     0.16     0.37    10.17     0  01:52        0.37
  HS02004770           JUNCTION     0.13     0.35    10.18     0  01:52        0.35
  HS02004480           JUNCTION     0.10     0.37     9.61     0  01:53        0.37
  HS02004479           JUNCTION     0.13     0.41     9.61     0  01:53        0.41
  HS02004478           JUNCTION     0.07     0.27     9.50     0  01:54        0.27
  YS02001745           JUNCTION     0.77     0.95     8.47     0  03:01        0.95
  YS02001748           JUNCTION     1.16     1.38     8.46     0  03:01        1.38
  YS02001751           JUNCTION     1.34     1.68     8.56     0  01:48        1.57
  YS02001754           JUNCTION     1.59     1.84     8.45     0  03:00        1.84
  YS02001762           JUNCTION     1.79     2.04     8.44     0  02:20        2.04
  YS02001765           JUNCTION     1.74     1.99     8.44     0  02:28        1.98
  YS02001767           JUNCTION     1.71     1.94     8.43     0  02:32        1.94
  YS02001770           JUNCTION     1.70     1.92     8.42     0  03:00        1.92
  YS02001774           JUNCTION     1.77     1.98     8.41     0  02:33        1.98
  YS02001779           JUNCTION     1.52     1.68     8.37     0  01:47        1.68
  YS02001882           JUNCTION     0.64     1.65     8.37     0  01:55        1.62
  YS02001884           JUNCTION     0.74     1.75     8.36     0  01:56        1.73
  YS02001759           JUNCTION     1.82     2.08     8.44     0  02:21        2.07
  YS02001887           JUNCTION     0.81     1.81     8.35     0  01:56        1.80
  YS02001890           JUNCTION     0.84     1.81     8.32     0  01:55        1.81
  YS02001898           JUNCTION     0.61     1.57     8.31     0  01:56        1.56
  YS02001901           JUNCTION     0.73     1.68     8.29     0  01:56        1.67
  YS02001904           JUNCTION     0.71     1.64     8.27     0  01:56        1.64
  YS02001907           JUNCTION     1.03     1.96     8.25     0  01:55        1.96
  YS02001910           JUNCTION     0.82     1.88     8.39     0  01:56        1.78
  YS02001915           JUNCTION     0.63     1.77     8.48     0  01:56        1.61
  YS02001918           JUNCTION     0.37     1.57     8.63     0  01:56        1.32
  YS02001619           JUNCTION     1.31     1.61     8.54     0  01:47        1.52
  YS02001629           JUNCTION     1.65     1.85     8.40     0  01:47        1.85
  YS02001641           JUNCTION     1.75     1.94     8.37     0  01:54        1.93
  YS02001644           JUNCTION     1.75     1.92     8.35     0  01:51        1.92
  YS02001652           JUNCTION     1.61     2.16     8.76     0  02:21        1.92
  YS02001655           JUNCTION     1.37     2.20     9.05     0  02:21        1.74
  YS02001920           JUNCTION     0.47     1.67     8.68     0  01:56        1.41
  YS02001923           JUNCTION     0.30     1.58     8.84     0  01:56        1.18
  YS02001926           JUNCTION     0.34     1.85     9.30     0  01:56        1.06
  YS02001929           JUNCTION     0.20     0.90     8.59     0  01:57        0.86
  YS02001658           JUNCTION     1.11     2.10     9.24     0  02:21        1.50
  YS02001661           JUNCTION     0.87     2.43     9.83     0  02:21        1.26
  YS02001664           JUNCTION     0.39     0.57     8.49     0  04:08        0.56
  YS02001622           JUNCTION     1.33     1.62     8.52     0  01:47        1.54
  YS02001633           JUNCTION     1.74     1.95     8.40     0  01:54        1.94
  YS02001649           JUNCTION     1.80     2.05     8.44     0  02:05        2.05
  YS02001757           JUNCTION     1.92     2.18     8.44     0  03:00        2.18
  YS02001895           JUNCTION     0.61     1.57     8.32     0  01:56        1.56
  YS02001625           JUNCTION     1.60     1.78     8.38     0  01:48        1.78
  YS02163301           JUNCTION     1.68     1.92     8.44     0  01:47        1.88
  YS02163601           JUNCTION     1.79     1.99     8.39     0  01:54        1.98
  YS02164001           JUNCTION     1.73     1.92     8.38     0  01:54        1.91
  YS02001647           JUNCTION     1.59     1.81     8.42     0  02:05        1.79
  YSB1154              JUNCTION     0.27     0.56     9.62     0  01:53        0.56
  YSB6556              JUNCTION     0.16     0.44     9.61     0  01:53        0.44
  YSB1174              JUNCTION     0.22     0.50     9.61     0  01:53        0.50
  YSB1171              JUNCTION     0.42     0.71     9.61     0  01:53        0.71
  YS02006553           JUNCTION     1.03     1.97     8.25     0  02:15        1.96
  YS02006561           JUNCTION     0.39     1.13     7.79     0  01:55        1.09
  YS02006556           JUNCTION     1.00     1.93     8.24     0  01:55        1.93
  YS02006558           JUNCTION     1.04     1.97     8.24     0  02:14        1.96
  YS02001783           JUNCTION     0.67     1.60     7.74     0  01:51        1.47
  YS02001784           JUNCTION     0.69     1.86     7.93     0  01:51        1.42
  YS02001786           JUNCTION     0.65     2.23     8.26     0  01:51        1.26
  YS02001788           JUNCTION     0.61     2.28     8.26     0  01:51        1.13
  YS02001790           JUNCTION     0.80     1.96     7.60     0  01:51        1.29
  YS02001791           JUNCTION     0.85     2.52     7.99     0  01:50        1.28
  YS02001793           JUNCTION     1.28     2.91     7.75     0  01:50        1.80
  WS02004139           JUNCTION     0.42     0.61     5.52     0  06:02        0.61
  WSC                  OUTFALL      0.22     0.38     1.05     0  02:05        0.38
  3                    OUTFALL      0.04     0.19     6.19     0  06:30        0.19
  4                    OUTFALL      0.01     0.11     7.11     0  01:51        0.10
  5                    OUTFALL      0.00     0.00     5.00     0  00:00        0.00
  JK-storage           STORAGE      4.68     5.80     6.60     0  01:51        5.80
  CC-storage           STORAGE      1.16     1.44     8.44     0  03:02        1.44
  XR-storage           STORAGE      7.63     7.72     5.72     0  00:42        7.72
  
  
  *******************
  Node Inflow Summary
  *******************
  
  -------------------------------------------------------------------------------------------------
                                  Maximum  Maximum                  Lateral       Total        Flow
                                  Lateral    Total  Time of Max      Inflow      Inflow     Balance
                                   Inflow   Inflow   Occurrence      Volume      Volume       Error
  Node                 Type           LPS      LPS  days hr:min    10^6 ltr    10^6 ltr     Percent
  -------------------------------------------------------------------------------------------------
  WS02001211           JUNCTION      7.35   273.95     0  06:00       0.207        2.38       1.352
  WS02001212           JUNCTION      0.00   264.48     0  06:03           0        2.35       0.642
  WS02001213           JUNCTION      0.00   263.37     0  06:03           0        2.33       0.851
  WS02003069           JUNCTION      0.32   897.89     0  02:03     0.00902        9.06       0.243
  WS02003072           JUNCTION      0.00   897.84     0  02:03           0        9.03       0.317
  WS02003073           JUNCTION      1.82   899.84     0  02:04      0.0514        9.06       0.344
  WS02003060           JUNCTION     16.53   897.31     0  02:02       0.466        9.09       0.233
  WS02003066           JUNCTION      0.00   792.17     0  01:58           0        6.33       0.053
  WS02003059           JUNCTION      0.00   263.42     0  06:04           0        2.33       1.507
  WS02003067           JUNCTION      0.00   791.92     0  01:58           0        6.34       0.116
  WS02004401           JUNCTION      0.00   797.11     0  01:56           0        6.51       0.240
  WS02004402           JUNCTION      0.00   797.30     0  01:56           0         6.5       0.234
  WS02004403           JUNCTION      0.00   797.43     0  01:56           0        6.48       0.220
  WS02004404           JUNCTION      0.16   797.85     0  01:56     0.00457        6.47       0.173
  WS02004406           JUNCTION      0.00   797.64     0  01:56           0        6.45       0.426
  WS02004409           JUNCTION      0.00   796.98     0  01:56           0        6.41       0.163
  WS02004410           JUNCTION      0.00   794.19     0  01:57           0         6.4       0.197
  WS02004411           JUNCTION      0.00   792.16     0  01:57           0        6.39       0.211
  WS02004412           JUNCTION      0.00   791.80     0  01:58           0        6.38       0.241
  WS02004413           JUNCTION      0.00   791.87     0  01:58           0        6.36       0.374
  WS02004405           JUNCTION      0.04   798.37     0  01:56     0.00107        6.46       0.260
  WS02006109           JUNCTION      1.23   775.35     0  01:54      0.0347        6.49       0.165
  WS02006110           JUNCTION      0.00   775.19     0  01:54           0        6.48       0.186
  WS02006111           JUNCTION      0.00   777.72     0  01:52           0        6.47       0.030
  WS02006112           JUNCTION     26.81   796.83     0  01:55      0.0948        6.56       0.338
  WS02006113           JUNCTION      0.00   775.26     0  01:54           0        6.47       0.068
  WS02006115           JUNCTION      0.00   796.85     0  01:56           0        6.54       0.189
  WS02006116           JUNCTION      0.00   797.52     0  01:55           0        6.53       0.192
  WS02006230           JUNCTION     10.28   377.19     0  05:37        0.29        3.79       0.188
  WS02006231           JUNCTION      0.00   370.01     0  05:35           0         3.5       0.112
  WS02006232           JUNCTION      0.00   371.42     0  05:36           0        3.51       0.226
  WS02006234           JUNCTION      0.00   373.04     0  05:36           0        3.51      -0.023
  WS02006235           JUNCTION      0.00   373.73     0  05:35           0        3.62       0.159
  WS02006238           JUNCTION      0.00   329.48     0  04:02           0        2.81      -0.113
  WS02006240           JUNCTION      0.00   333.98     0  04:01           0        2.76       0.057
  WS02006242           JUNCTION      0.00   340.49     0  02:41           0        2.75       0.127
  WS02006243           JUNCTION      0.00   349.43     0  02:40           0        2.72      -0.429
  WS02006245           JUNCTION      0.00   355.86     0  02:40           0        2.73       0.375
  WS02006247           JUNCTION      0.00   360.83     0  02:40           0        2.73       0.046
  WS02006248           JUNCTION      0.00   365.95     0  02:40           0        2.72      -0.149
  WS02006249           JUNCTION      0.00   436.64     0  02:40           0        2.82       0.241
  WS02006239           JUNCTION      0.00   330.80     0  04:02           0        2.78      -0.355
  WS02006251           JUNCTION      0.08   439.67     0  02:40     0.00217        2.85      -0.025
  WS02006252           JUNCTION      0.00   400.00     0  02:40           0        2.28       0.006
  WS02006253           JUNCTION      3.66   142.87     0  01:54      0.0117       0.567      -0.001
  WS02006256           JUNCTION      0.00   599.95     0  06:30           0         1.9       0.119
  WS02004138           JUNCTION      0.00   284.96     0  06:00           0        2.19       0.122
  WS02004407           JUNCTION      0.00   797.34     0  01:55           0        6.42       0.069
  WS02006228           JUNCTION      0.00   774.18     0  01:54           0        6.47       0.105
  WS02006229           JUNCTION      0.00   777.98     0  01:53           0        6.48       0.177
  WS02006280           JUNCTION      0.00   656.05     0  01:55           0         2.7       0.003
  WS02006284           JUNCTION      0.10   655.97     0  01:55      0.0027         2.7       0.038
  WS02006287           JUNCTION      0.00   655.82     0  01:54           0         2.7       0.027
  WSF200               JUNCTION      0.00   792.17     0  01:58           0        6.33       0.038
  HS02004901           JUNCTION     32.57    32.57     0  01:50       0.114       0.115       1.559
  HS02004881           JUNCTION     13.82   139.59     0  01:54      0.0479       0.529       0.050
  HS02004876           JUNCTION     24.51   126.37     0  01:54      0.0923       0.482       0.114
  HS02004870           JUNCTION     25.44   102.13     0  01:54      0.0907        0.39       0.028
  HS02004862           JUNCTION     23.11    77.53     0  01:55       0.099       0.299       0.058
  HS02004856           JUNCTION     19.02    54.51     0  01:55      0.0682       0.202       0.718
  HS02004852           JUNCTION      0.00    36.10     0  01:55           0       0.134       0.042
  HS02004848           JUNCTION     50.49    50.49     0  01:57       0.223       0.223       0.021
  HS02004842           JUNCTION      0.00    15.55     0  02:06           0       0.102      14.561
  HS02004837           JUNCTION     49.08    62.50     0  01:55       0.337       0.426       0.191
  HS02004830           JUNCTION      0.15    62.61     0  01:55     0.00423       0.416       0.298
  HS02004824           JUNCTION     60.06   122.21     0  01:58       0.286       0.702       0.077
  HS02004817           JUNCTION      0.60   124.03     0  01:59      0.0169       0.718       2.377
  HS02004807           JUNCTION     47.25   168.29     0  01:57       0.166       0.868       0.499
  HS02004802           JUNCTION      0.00   169.25     0  01:58           0       0.865       0.459
  HS02004799           JUNCTION     37.43   414.53     0  01:52       0.135        1.57       0.166
  HS02004792           JUNCTION    160.44   377.30     0  01:52       0.598        1.44       0.028
  HS02004788           JUNCTION     53.14   218.54     0  01:53        0.24       0.839       0.047
  HS02004785           JUNCTION      0.15   165.59     0  01:52     0.00423       0.601       0.083
  HS02004777           JUNCTION      0.03   165.80     0  01:51    0.000846       0.601       0.872
  HS02004770           JUNCTION    134.74   166.64     0  01:51        0.49       0.602       0.516
  HS02004480           JUNCTION      0.00   492.23     0  01:53           0        1.85       0.064
  HS02004479           JUNCTION      0.00    78.00     0  01:53           0       0.292       0.252
  HS02004478           JUNCTION      0.00   655.77     0  01:54           0         2.7       0.013
  YS02001745           JUNCTION    386.89   386.89     0  02:16        3.55        3.55       0.329
  YS02001748           JUNCTION      0.04   395.60     0  02:15     0.00127        3.54       0.646
  YS02001751           JUNCTION      0.01   395.52     0  02:15     0.00031        3.52       0.684
  YS02001754           JUNCTION      0.26   396.17     0  02:15     0.00733         3.5       0.696
  YS02001762           JUNCTION      0.00   433.47     0  02:03           0        2.38       0.890
  YS02001765           JUNCTION      0.00   433.77     0  02:03           0        2.38       1.024
  YS02001767           JUNCTION      0.54   433.83     0  02:03      0.0151         2.4       1.502
  YS02001770           JUNCTION    491.42   693.39     0  03:01        3.94        4.84       0.651
  YS02001774           JUNCTION      0.00   693.40     0  03:01           0        3.34       0.747
  YS02001779           JUNCTION      0.01   693.45     0  03:01    0.000141        3.31       0.465
  YS02001882           JUNCTION      0.00    97.65     0  01:52           0      0.0242       7.719
  YS02001884           JUNCTION      0.00   115.99     0  01:52           0      0.0597      10.307
  YS02001759           JUNCTION    476.91   863.74     0  02:03        3.62        5.06       0.447
  YS02001887           JUNCTION    605.93   606.04     0  02:15        4.13        4.16       0.190
  YS02001890           JUNCTION      0.00   606.31     0  02:16           0        4.12       0.212
  YS02001898           JUNCTION      0.00   517.94     0  02:27           0           4       0.048
  YS02001901           JUNCTION      0.00   517.86     0  02:27           0           4       0.164
  YS02001904           JUNCTION      0.00   517.74     0  02:27           0           4       0.132
  YS02001907           JUNCTION      0.00  1111.51     0  01:57           0        9.14       0.252
  YS02001910           JUNCTION      0.00   602.96     0  01:57           0        5.16       0.218
  YS02001915           JUNCTION    345.21   603.01     0  01:57        2.96        5.21       0.107
  YS02001918           JUNCTION      0.00   336.73     0  01:57           0        2.29       0.048
  YS02001619           JUNCTION    336.52   336.52     0  02:16        2.95        2.95       0.409
  YS02001629           JUNCTION      0.00   246.71     0  01:47           0        1.45       2.012
  YS02001641           JUNCTION      0.00   423.85     0  01:51           0        4.86       0.433
  YS02001644           JUNCTION    367.62  1515.25     0  03:01        3.42        13.6       0.196
  YS02001652           JUNCTION      0.00   475.65     0  02:16           0        3.04       0.752
  YS02001655           JUNCTION      0.15   475.12     0  02:16     0.00434        3.07       0.826
  YS02001920           JUNCTION      2.87   336.74     0  01:57      0.0809        2.26       0.117
  YS02001923           JUNCTION      0.04   293.90     0  01:56     0.00106        2.16       0.037
  YS02001926           JUNCTION      0.05   308.94     0  01:55     0.00147        2.14       0.153
  YS02001929           JUNCTION    185.81   206.61     0  01:56        2.12        2.13       0.033
  YS02001658           JUNCTION      0.00   510.03     0  02:09           0        3.09       0.786
  YS02001661           JUNCTION      0.00   772.06     0  02:04           0        3.41       0.044
  YS02001664           JUNCTION    437.54   437.54     0  02:16         3.1        3.42       0.193
  YS02001622           JUNCTION      0.00   336.92     0  02:16           0        2.94       1.097
  YS02001633           JUNCTION    373.18   423.57     0  01:51        3.53        4.93       0.651
  YS02001649           JUNCTION      0.00   998.75     0  01:58           0        7.22       0.512
  YS02001757           JUNCTION      0.00  2131.71     0  02:02           0        9.74       0.952
  YS02001895           JUNCTION      0.00   517.69     0  02:27           0           4       0.117
  YS02001625           JUNCTION      0.00   336.59     0  02:16           0        2.91       1.365
  YS02163301           JUNCTION      0.00   229.42     0  01:48           0        1.44       1.665
  YS02163601           JUNCTION      0.11   423.47     0  01:51      0.0031        4.87       0.617
  YS02164001           JUNCTION      0.00   423.53     0  01:51           0        4.85       0.408
  YS02001647           JUNCTION      0.00   788.73     0  03:01           0        6.39       0.442
  YSB1154              JUNCTION     43.61    43.61     0  01:53       0.163       0.164       0.888
  YSB6556              JUNCTION      0.00    43.64     0  01:53           0       0.165       0.764
  YSB1174              JUNCTION     35.87    35.87     0  01:50        0.12        0.12       1.078
  YSB1171              JUNCTION      0.00    78.03     0  01:53           0       0.291       2.228
  YS02006553           JUNCTION      0.00   683.06     0  03:22           0        7.11       0.210
  YS02006561           JUNCTION      0.00   968.64     0  02:12           0        10.9       0.004
  YS02006556           JUNCTION      0.00   683.33     0  03:22           0        7.12       0.141
  YS02006558           JUNCTION    522.52   969.35     0  02:10        3.81        10.9       0.043
  YS02001783           JUNCTION      0.00   968.63     0  02:11           0        10.9       0.021
  YS02001784           JUNCTION      1.06   969.61     0  02:10      0.0299        10.9       0.034
  YS02001786           JUNCTION      0.06   969.57     0  02:12     0.00159        10.9       0.033
  YS02001788           JUNCTION      0.07   969.47     0  02:12       0.002        10.9       0.017
  YS02001790           JUNCTION      0.15   969.79     0  02:12     0.00437        10.9       0.019
  YS02001791           JUNCTION      0.00   969.78     0  02:13           0        10.9       0.010
  YS02001793           JUNCTION      0.00   971.71     0  02:10           0        10.9      -0.006
  WS02004139           JUNCTION      0.32   284.18     0  06:00     0.00905         2.2       1.411
  WSC                  OUTFALL       0.00   900.22     0  02:05           0        9.03       0.000
  3                    OUTFALL       0.00   461.86     0  06:30           0        1.05       0.000
  4                    OUTFALL       0.00   128.03     0  01:51           0      0.0933       0.000
  5                    OUTFALL       0.00     0.00     0  00:00           0           0       0.000 ltr
  JK-storage           STORAGE       0.00   999.33     0  01:49           0          11       0.039
  CC-storage           STORAGE       0.00  2130.97     0  02:02           0        6.47       1.018
  XR-storage           STORAGE     844.69   844.69     0  03:01        12.1        12.7      -0.000
  
  
  **********************
  Node Surcharge Summary
  **********************
  
  Surcharging occurs when water rises above the top of the highest conduit.
  ---------------------------------------------------------------------
                                               Max. Height   Min. Depth
                                   Hours       Above Crown    Below Rim
  Node                 Type      Surcharged         Meters       Meters
  ---------------------------------------------------------------------
  WS02004401           JUNCTION        0.37          0.104        1.556
  WS02004402           JUNCTION        0.47          0.109        1.631
  WS02004403           JUNCTION        0.49          0.099        1.931
  WS02004404           JUNCTION        0.64          0.155        2.625
  WS02004406           JUNCTION        0.59          0.110        2.340
  WS02004405           JUNCTION        0.62          0.133        2.667
  WS02006109           JUNCTION        1.25          0.422        1.398
  WS02006110           JUNCTION        0.86          0.186        1.664
  WS02006112           JUNCTION        1.02          0.376        1.304
  WS02006115           JUNCTION        0.15          0.044        2.206
  WS02006116           JUNCTION        0.19          0.053        2.237
  WS02006230           JUNCTION        0.60          0.293        1.277
  WS02006231           JUNCTION        0.62          0.296        1.234
  WS02006232           JUNCTION        0.96          0.447        1.033
  WS02006234           JUNCTION        0.62          0.369        0.871
  WS02006235           JUNCTION        0.70          0.353        0.937
  WS02006238           JUNCTION        0.74          0.369        1.061
  WS02006240           JUNCTION        0.38          0.400        0.990
  WS02006242           JUNCTION        0.51          0.543        0.277
  WS02006243           JUNCTION        0.11          0.536        0.234
  WS02006247           JUNCTION        0.01          0.052        0.708
  WS02006239           JUNCTION        0.58          0.367        0.923
  WS02006252           JUNCTION        0.64          0.192        0.908
  WS02006228           JUNCTION        1.24          0.525        1.675
  YS02001748           JUNCTION        5.99          0.303        0.887
  YS02001751           JUNCTION        6.02          0.681        0.519
  YS02001754           JUNCTION        6.05          0.788        0.362
  YS02001762           JUNCTION        6.09          1.040        0.110
  YS02001765           JUNCTION        6.08          0.988        0.112
  YS02001767           JUNCTION        6.07          0.944        0.086
  YS02001770           JUNCTION        6.07          0.894        0.026
  YS02001774           JUNCTION        6.08          0.984        0.066
  YS02001779           JUNCTION        6.04          0.680        0.000
  YS02001882           JUNCTION        1.78          0.654        0.176
  YS02001884           JUNCTION        1.81          0.688        0.182
  YS02001759           JUNCTION        6.09          1.077        0.133
  YS02001887           JUNCTION        1.88          0.764        0.186
  YS02001890           JUNCTION        1.91          0.760        0.000
  YS02001898           JUNCTION        1.75          0.544        0.196
  YS02001901           JUNCTION        1.86          0.685        0.185
  YS02001904           JUNCTION        1.83          0.645        0.205
  YS02001907           JUNCTION        2.27          0.950        0.000
  YS02001910           JUNCTION        1.95          0.883        0.217
  YS02001915           JUNCTION        1.78          0.767        0.233
  YS02001918           JUNCTION        1.56          0.568        0.242
  YS02001619           JUNCTION        6.02          0.610        0.000
  YS02001629           JUNCTION        6.02          0.470        0.000
  YS02001641           JUNCTION        6.08          0.936        0.164
  YS02001644           JUNCTION        6.08          0.920        0.000
  YS02001652           JUNCTION        6.05          1.130        0.000
  YS02001655           JUNCTION        6.02          1.200        0.000
  YS02001920           JUNCTION        1.60          0.670        0.470
  YS02001923           JUNCTION        0.01          0.365        0.455
  YS02001926           JUNCTION        0.01          0.852        0.048
  YS02001658           JUNCTION        5.99          1.097        0.203
  YS02001661           JUNCTION        0.16          1.356        0.034
  YS02001622           JUNCTION        6.02          0.620        0.000
  YS02001633           JUNCTION        6.08          0.928        0.132
  YS02001649           JUNCTION        6.08          1.050        0.000
  YS02001757           JUNCTION        6.12          1.178        0.032
  YS02001895           JUNCTION        1.76          0.570        0.180
  YS02001625           JUNCTION        6.05          0.780        0.000
  YS02163301           JUNCTION        6.07          0.923        0.107
  YS02163601           JUNCTION        6.09          0.990        0.090
  YS02164001           JUNCTION        6.08          0.920        0.180
  YS02001647           JUNCTION        6.05          0.808        0.092
  YS02006553           JUNCTION        2.31          0.969        0.221
  YS02006561           JUNCTION        1.67          0.335        0.815
  YS02006556           JUNCTION        2.12          0.892        0.458
  YS02006558           JUNCTION        2.09          0.873        0.527
  YS02001783           JUNCTION        2.15          0.796        0.804
  YS02001784           JUNCTION        2.22          1.061        0.429
  YS02001786           JUNCTION        2.16          1.430        0.000
  YS02001788           JUNCTION        2.14          1.480        0.000
  YS02001790           JUNCTION        4.33          1.157        0.000
  YS02001791           JUNCTION        4.49          1.719        0.201
  YS02001793           JUNCTION        4.83          1.915        0.685
  
  
  *********************
  Node Flooding Summary
  *********************
  
  Flooding refers to all water that overflows a node, whether it ponds or not.
  --------------------------------------------------------------------------
                                                             Total   Maximum
                                 Maximum   Time of Max       Flood    Ponded
                        Hours       Rate    Occurrence      Volume     Depth
  Node                 Flooded       LPS   days hr:min    10^6 ltr    Meters
  --------------------------------------------------------------------------
  YS02001779              3.65    693.45      0  03:01       3.290     0.000
  YS02001890              0.58     90.46      0  02:16       0.102     0.000
  YS02001907              1.41    583.00      0  02:14       2.017     0.000
  YS02001619              0.01     81.72      0  01:48       0.000     0.000
  YS02001629              0.01    191.29      0  01:47       0.001     0.000
  YS02001644              5.83   1515.25      0  03:01      12.491     0.000
  YS02001652              0.01      5.70      0  02:21       0.000     0.000
  YS02001655              0.01     11.09      0  02:21       0.000     0.000
  YS02001622              0.01     80.69      0  01:47       0.000     0.000
  YS02001649              0.02     33.22      0  02:21       0.001     0.000
  YS02001625              1.98    326.12      0  02:16       1.443     0.000
  YS02001786              0.01     79.61      0  01:51       0.000     0.000
  YS02001788              0.01     50.03      0  01:51       0.000     0.000
  YS02001790              0.01    237.08      0  01:51       0.000     0.000
  JK-storage              4.13    969.81      0  02:12       9.015     0.000
  XR-storage              7.13    827.30      0  02:20       9.588     0.000
  
  
  **********************
  Storage Volume Summary
  **********************
  
  --------------------------------------------------------------------------------------------------
                         Average     Avg  Evap Exfil       Maximum     Max    Time of Max    Maximum
                          Volume    Pcnt  Pcnt  Pcnt        Volume    Pcnt     Occurrence    Outflow
  Storage Unit           1000 m3    Full  Loss  Loss       1000 m3    Full    days hr:min        LPS
  --------------------------------------------------------------------------------------------------
  JK-storage               0.235      81     0     0         0.291     100       0  01:51     599.95
  CC-storage               3.243      21     0     0         4.019      26       0  03:02     400.00
  XR-storage               0.915      99     0     0         0.926     100       0  00:42     284.96
  
  
  ***********************
  Outfall Loading Summary
  ***********************
  
  -----------------------------------------------------------
                         Flow       Avg       Max       Total
                         Freq      Flow      Flow      Volume
  Outfall Node           Pcnt       LPS       LPS    10^6 ltr
  -----------------------------------------------------------
  WSC                   99.99    345.71    900.22       9.026
  3                     39.95    150.48    461.86       1.052
  4                     15.90     27.63    128.03       0.093
  5                      0.00      0.00      0.00       0.000
  -----------------------------------------------------------
  System                38.96    523.82    933.60      10.172
  
  
  ********************
  Link Flow Summary
  ********************
  
  -----------------------------------------------------------------------------
                                 Maximum  Time of Max   Maximum    Max/    Max/
                                  |Flow|   Occurrence   |Veloc|    Full    Full
  Link                 Type          LPS  days hr:min     m/sec    Flow   Depth
  -----------------------------------------------------------------------------
  WS02003066WSF200     CONDUIT    792.17     0  01:58      3.10    0.13    0.28
  WS02006287WS02006284 CONDUIT    655.87     0  01:55      2.36    0.30    0.38
  WS02006284WS02006280 CONDUIT    656.05     0  01:55      2.59    0.27    0.36
  WS02006280WS02006229 CONDUIT    656.06     0  01:55      4.21    0.14    0.25
  WS02006229WS02006228 CONDUIT    774.18     0  01:54      1.54    2.56    1.00
  WS02006256WS02006235 CONDUIT    166.25     0  00:01      2.58    1.76    1.00
  WS02006253WS02006251 CONDUIT    156.94     0  01:53      0.61    0.47    0.91
  WS02006252WS02006251 CONDUIT    400.34     0  04:20      3.19    1.47    1.00
  WS02006251WS02006249 CONDUIT    436.64     0  02:40      1.24    1.26    0.86
  WS02006249WS02006248 CONDUIT    365.95     0  02:40      1.18    2.00    0.86
  WS02006248WS02006247 CONDUIT    360.83     0  02:40      1.15    0.79    0.94
  WS02006247WS02006245 CONDUIT    355.86     0  02:40      1.13    2.82    0.99
  WS02006245WS02006243 CONDUIT    349.43     0  02:40      1.18    1.03    1.00
  WS02006243WS02006242 CONDUIT    340.49     0  02:41      1.07    0.73    1.00
  WS02006242WS02006240 CONDUIT    333.98     0  04:01      1.00    1.33    1.00
  WS02006240WS02006239 CONDUIT    330.80     0  04:02      1.06    1.04    1.00
  WS02006239WS02006238 CONDUIT    329.48     0  04:02      0.92    1.05    1.00
  WS02006238WS02006235 CONDUIT    328.99     0  04:02      1.25    0.73    1.00
  WS02006235WS02006234 CONDUIT    373.04     0  05:36      1.09    3.94    1.00
  WS02006234WS02006232 CONDUIT    371.42     0  05:36      1.13    0.75    1.00
  WS02006232WS02006231 CONDUIT    370.01     0  05:35      1.04    0.78    1.00
  WS02006231WS02006230 CONDUIT    366.91     0  05:37      1.37    5.57    1.00
  WS02006230WS02006229 CONDUIT    376.23     0  05:38      0.98    8.37    1.00
  WS02006228WS02006109 CONDUIT    774.12     0  01:54      1.54    3.38    1.00
  WS02006116WS02004401 CONDUIT    797.11     0  01:56      1.01    1.10    1.00
  WS02006115WS02006116 CONDUIT    797.52     0  01:55      1.02    1.02    1.00
  WS02006113WS02006111 CONDUIT    777.72     0  01:52      2.65    0.93    0.74
  WS02006112WS02006115 CONDUIT    796.85     0  01:56      1.01    0.47    1.00
  WS02006111WS02006112 CONDUIT    772.12     0  01:56      1.79    0.37    0.86
  WS02006110WS02006113 CONDUIT    775.26     0  01:54      1.72    0.71    0.87
  WS02006109WS02006110 CONDUIT    775.19     0  01:54      1.54    1.49    1.00
  WS02004411WS02004412 CONDUIT    791.80     0  01:58      1.13    1.12    0.83
  WS02004401WS02004402 CONDUIT    797.30     0  01:56      1.02    0.96    1.00
  WS02004413WS02003067 CONDUIT    791.92     0  01:58      1.38    0.34    0.68
  WS02004412WS02004413 CONDUIT    791.87     0  01:58      1.07    0.53    0.90
  WS02004410WS02004411 CONDUIT    792.16     0  01:57      1.12    1.08    0.84
  WS02004409WS02004410 CONDUIT    794.19     0  01:57      1.13    1.03    0.84
  WS02004407WS02004409 CONDUIT    796.98     0  01:56      1.66    0.28    0.60
  WS02004406WS02004407 CONDUIT    797.34     0  01:55      1.40    0.36    0.68
  WS02004405WS02004406 CONDUIT    797.64     0  01:56      1.02    1.57    1.00
  WS02004404WS02004405 CONDUIT    798.33     0  01:56      1.02    7.82    1.00
  WS02004403WS02004404 CONDUIT    797.69     0  01:56      1.02    0.58    1.00
  WS02004402WS02004403 CONDUIT    797.43     0  01:56      1.02    1.15    1.00
  WS02004139WS02001211 CONDUIT    266.60     0  06:00      0.53    0.34    0.49
  WS02004138WS02004139 CONDUIT    283.86     0  06:00      2.39    0.06    0.36
  WS02003067WS02003066 CONDUIT    792.17     0  01:58      1.51    0.25    0.47
  WS02001213WS02003059 CONDUIT    263.42     0  06:04      0.50    0.43    0.71
  WS02001212WS02001213 CONDUIT    263.37     0  06:03      1.13    0.41    0.37
  WS02001211WS02001212 CONDUIT    264.48     0  06:03      0.63    0.20    0.53
  WS02003072WS02003073 CONDUIT    898.02     0  02:04      1.70    1.94    0.47
  WS02003069WS02003072 CONDUIT    897.84     0  02:03      1.60    0.43    0.50
  WS02003060WS02003069 CONDUIT    897.57     0  02:03      1.85    0.35    0.44
  WS02003059WS02003060 CONDUIT    265.62     0  06:05      0.65    0.17    0.63
  HS02004901HS02004770 CONDUIT     31.95     0  01:52      0.09    0.12    0.51
  HS02004876HS02004881 CONDUIT    126.38     0  01:55      1.20    1.34    0.15
  HS02004870HS02004876 CONDUIT    102.10     0  01:55      0.82    0.07    0.18
  HS02004842HS02004848 CONDUIT     15.55     0  02:06      0.07    0.01    0.33
  HS02004837HS02004842 CONDUIT     15.96     0  02:07      0.41    0.01    0.35
  HS02004830HS02004837 CONDUIT     62.46     0  01:55      0.66    0.06    0.14
  HS02004824HS02004830 CONDUIT     62.57     0  01:56      0.62    0.08    0.16
  HS02004817HS02004824 CONDUIT    123.43     0  01:59      0.31    0.06    0.58
  HS02004770HS02004777 CONDUIT    165.77     0  01:51      0.46    0.30    0.52
  HS02004799HS02004480 CONDUIT    414.30     0  01:53      1.02    0.52    0.58
  HS02004792HS02004799 CONDUIT    377.21     0  01:52      1.15    0.23    0.47
  HS02004788HS02004792 CONDUIT    218.44     0  01:53      1.24    0.14    0.25
  HS02004785HS02004788 CONDUIT    165.54     0  01:53      0.86    1.25    0.27
  HS02004777HS02004785 CONDUIT    165.44     0  01:52      0.54    0.20    0.44
  HS02004480HS02004478 CONDUIT    492.14     0  01:53      1.52    2.07    0.46
  HS02004479HS02004480 CONDUIT     78.31     0  01:54      0.27    0.08    0.55
  HS02004862HS02004870 CONDUIT     77.52     0  01:55      0.79    0.08    0.14
  HS02004848HS02004852 CONDUIT     36.10     0  01:55      0.52    0.04    0.10
  HS02004856HS02004862 CONDUIT     54.46     0  01:55      0.59    0.05    0.13
  HS02004852HS02004856 CONDUIT     36.15     0  01:56      0.33    0.04    0.16
  HS02004802HS02004478 CONDUIT    170.22     0  01:58      0.53    0.15    0.47
  HS02004478WS02006287 CONDUIT    655.82     0  01:54      2.08    0.18    0.35
  HS02004817HS02004807 CONDUIT    125.36     0  01:59      0.24    0.07    0.75
  HS02004807HS02004802 CONDUIT    169.25     0  01:58      0.47    0.32    0.53
  YS02001759YS02001757 CONDUIT    863.64     0  02:03      1.10    0.61    1.00
  YS02001762YS02001759 CONDUIT    433.47     0  02:03      0.55    0.50    1.00
  YS02001765YS02001762 CONDUIT    433.47     0  02:03      0.55    0.41    1.00
  YS02001770YS02001767 CONDUIT    433.30     0  02:03      0.55    1.72    1.00
  YS02001774YS02001770 CONDUIT    693.40     0  03:01      0.88    0.44    1.00
  YS02001779YS02001774 CONDUIT    693.45     0  03:01      0.88    0.35    1.00
  YS02001649YS02001757 CONDUIT    999.46     0  01:58      1.27    0.61    1.00
  YS02001767YS02001765 CONDUIT    433.77     0  02:03      0.55    0.55    1.00
  YS02006561YS02001783 CONDUIT    968.63     0  02:11      2.14    0.50    1.00
  YS02001783YS02001784 CONDUIT    968.55     0  02:10      1.93    1.34    1.00
  YS02001784YS02001785 CONDUIT    969.52     0  02:12      1.93    2.26    1.00
  YS02001788YS02001790 CONDUIT    969.64     0  02:12      2.33    0.71    1.00
  YS02001790YS02001791 CONDUIT    969.78     0  02:13      2.84    1.06    1.00
  YS02001791YS02001793 CONDUIT    971.71     0  02:10      5.58    0.42    1.00
  YS02001910YS02001907 CONDUIT    603.14     0  01:57      0.77    0.34    1.00
  YS02001786YS02001788 CONDUIT    969.40     0  02:12      2.23    1.87    1.00
  YS02001915YS02001910 CONDUIT    602.96     0  01:57      0.77    0.30    1.00
  YS02001918YS02001915 CONDUIT    337.43     0  01:57      0.46    0.19    1.00
  YS02001923YS02001920 CONDUIT    333.87     0  01:57      0.78    0.15    1.00
  YS02001926YS02001923 CONDUIT    291.23     0  01:57      0.87    0.42    1.00
  YS02001929YS02001926 CONDUIT    221.20     0  01:57      0.93    0.11    0.95
  YS02001920YS02001918 CONDUIT    336.73     0  01:57      0.75    0.33    1.00
  YS02001629YS02163301 CONDUIT    229.42     0  01:48      0.29    0.28    1.00
  YS02001619YS02001622 CONDUIT    336.92     0  02:16      0.76    0.50    1.00
  YS02001622YS02001625 CONDUIT    336.59     0  02:16      0.43    0.18    1.00
  YS02001625YS02001629 CONDUIT    211.97     0  01:47      0.31    0.10    1.00
  YS02163301YS02001633 CONDUIT    228.98     0  01:48      0.29    0.22    1.00
  YS02163601YS02164001 CONDUIT    423.53     0  01:51      0.54    0.38    1.00
  YS02164001YS02001641 CONDUIT    423.85     0  01:51      0.54    0.58    1.00
  YS02001641YS02001644 CONDUIT    423.90     0  01:51      0.54    1.37    1.00
  YS02001647YS02001649 CONDUIT    788.73     0  03:01      1.00    0.42    1.00
  YS02006553YS02006556 CONDUIT    683.33     0  03:22      0.87    0.58    1.00
  YS02006556YS02006558 CONDUIT    683.98     0  03:22      0.87    0.54    1.00
  YSB6556YSB1171       CONDUIT     43.98     0  01:54      0.13    0.05    0.82
  YS02001907YS02006553 CONDUIT    683.06     0  03:22      0.76    0.80    1.00
  YS02006558YS02006561 CONDUIT    968.64     0  02:12      3.43    2.14    1.00
  YS02001633YS02163601 CONDUIT    423.36     0  01:51      0.54    0.44    1.00
  YS02001644YS02001647 CONDUIT    788.79     0  03:01      1.00    0.46    1.00
  YS02001745YS02001748 CONDUIT    395.56     0  02:15      1.73    0.15    0.97
  YS02001748YS02001751 CONDUIT    395.50     0  02:15      1.25    0.20    1.00
  YS02001751YS02001754 CONDUIT    395.91     0  02:15      1.03    0.19    1.00
  YS02001754YS02001757 CONDUIT    395.83     0  02:15      0.50    0.16    1.00
  YS02001882YS02001884 CONDUIT     97.65     0  01:52      0.12    0.11    1.00
  YS02001884YS02001887 CONDUIT    115.99     0  01:52      0.15    0.15    1.00
  YS02001890YS02001895 CONDUIT    517.69     0  02:27      0.66    0.24    1.00
  YS02001895YS02001898 CONDUIT    517.94     0  02:27      0.66    0.90    1.00
  YS02001898YS02001901 CONDUIT    517.86     0  02:27      0.66    0.33    1.00
  YS02001901YS02001904 CONDUIT    517.74     0  02:27      0.66    0.80    1.00
  YS02001904YS02001907 CONDUIT    517.73     0  02:27      0.66    0.18    1.00
  YS02001887YS02001890 CONDUIT    606.31     0  02:16      0.77    1.04    1.00
  YS02001652YS02001649 CONDUIT    477.05     0  02:10      0.61    0.24    1.00
  YS02001655YS02001652 CONDUIT    475.65     0  02:16      1.09    0.23    1.00
  YS02001658YS02001655 CONDUIT    474.97     0  02:16      1.45    0.20    1.00
  YS02001661YS02001658 CONDUIT    510.03     0  02:09      1.85    0.20    1.00
  YS02001664YS02001661 CONDUIT    772.06     0  02:04      1.75    0.24    0.76
  YSB1154YSB6556       CONDUIT     43.64     0  01:53      0.17    0.08    0.72
  YSB1174YSB1171       CONDUIT     35.15     0  01:50      0.10    0.05    0.83
  YSB1171HS02004479    CONDUIT     78.00     0  01:53      0.54    0.05    0.67
  HS02004881HS02006253 CONDUIT    139.59     0  01:54      2.33    0.03    0.25
  YS02001793JiankangQianchi CONDUIT    999.33     0  01:49      9.84    0.08    1.00
  YS02001757CaochengTiaoxuchi CONDUIT   2130.97     0  02:02      3.70    0.94    1.00
  WSF200WS02003060     CONDUIT    791.73     0  01:59      2.24    0.18    0.36
  1                    CONDUIT    900.22     0  02:05      3.23    0.31    0.38
  2                    CONDUIT    128.03     0  01:51      5.19    0.31    0.38
  3                    CONDUIT    461.86     0  06:30      9.66    0.74    0.64
  4                    CONDUIT      0.00     0  00:00      0.00    0.00    0.00
  CC-Pump-1            PUMP       200.00     0  02:40              1.00
  CC-Pump-2            PUMP       200.00     0  03:40              1.00
  JK-Pump-1            PUMP       300.00     0  07:00              1.00
  JK-Pump-2            PUMP       300.00     0  00:00              1.00
  XR-Pump-1            PUMP        95.00     0  00:00              1.00
  XR-Pump-2            PUMP        95.00     0  05:30              1.00
  XR-Pump-3            PUMP        94.96     0  06:00              1.00
  XR-Pump-4            PUMP        95.00     0  06:00              1.00
  
  
  ***************************
  Flow Classification Summary
  ***************************
  
  -------------------------------------------------------------------------------------
                      Adjusted    ---------- Fraction of Time in Flow Class ---------- 
                       /Actual         Up    Down  Sub   Sup   Up    Down  Norm  Inlet 
  Conduit               Length    Dry  Dry   Dry   Crit  Crit  Crit  Crit  Ltd   Ctrl  
  -------------------------------------------------------------------------------------
  WS02003066WSF200        1.00   0.08  0.00  0.00  0.00  0.92  0.00  0.00  0.64  0.00
  WS02006287WS02006284    1.00   0.05  0.01  0.00  0.60  0.34  0.00  0.00  0.65  0.00
  WS02006284WS02006280    1.00   0.06  0.00  0.00  0.00  0.00  0.00  0.94  0.00  0.00
  WS02006280WS02006229    1.00   0.06  0.00  0.00  0.00  0.00  0.00  0.94  0.00  0.00
  WS02006229WS02006228    1.00   0.00  0.00  0.00  0.98  0.00  0.00  0.02  0.00  0.00
  WS02006256WS02006235    1.00   0.00  0.00  0.00  1.00  0.00  0.00  0.00  0.00  0.00
  WS02006253WS02006251    1.00   0.04  0.01  0.00  0.94  0.00  0.00  0.00  0.00  0.00
  WS02006252WS02006251    1.00   0.08  0.00  0.00  0.00  0.00  0.92  0.00  0.00  0.00
  WS02006251WS02006249    1.00   0.00  0.00  0.00  1.00  0.00  0.00  0.00  0.37  0.00
  WS02006249WS02006248    1.00   0.00  0.03  0.00  0.75  0.00  0.22  0.00  0.00  0.00
  WS02006248WS02006247    1.00   0.03  0.00  0.00  0.97  0.00  0.00  0.00  0.28  0.00
  WS02006247WS02006245    1.00   0.03  0.00  0.00  0.96  0.00  0.00  0.01  0.00  0.00
  WS02006245WS02006243    1.00   0.02  0.01  0.00  0.92  0.00  0.00  0.06  0.02  0.00
  WS02006243WS02006242    1.00   0.01  0.00  0.00  0.99  0.00  0.00  0.00  0.33  0.00
  WS02006242WS02006240    1.00   0.00  0.00  0.00  0.99  0.00  0.01  0.00  0.00  0.00
  WS02006240WS02006239    1.00   0.00  0.00  0.00  0.95  0.00  0.00  0.04  0.02  0.00
  WS02006239WS02006238    1.00   0.00  0.00  0.00  1.00  0.00  0.00  0.00  0.08  0.00
  WS02006238WS02006235    1.00   0.00  0.00  0.00  1.00  0.00  0.00  0.00  0.00  0.00
  WS02006235WS02006234    1.00   0.00  0.00  0.00  0.96  0.00  0.04  0.00  0.00  0.00
  WS02006234WS02006232    1.00   0.00  0.00  0.00  1.00  0.00  0.00  0.00  0.05  0.00
  WS02006232WS02006231    1.00   0.00  0.00  0.00  0.99  0.00  0.01  0.00  0.00  0.00
  WS02006231WS02006230    1.00   0.00  0.00  0.00  0.32  0.00  0.67  0.00  0.00  0.00
  WS02006230WS02006229    1.00   0.00  0.00  0.00  0.98  0.00  0.00  0.02  0.01  0.00
  WS02006228WS02006109    1.00   0.00  0.00  0.00  0.99  0.00  0.00  0.00  0.00  0.00
  WS02006116WS02004401    1.00   0.03  0.00  0.00  0.97  0.00  0.00  0.00  0.00  0.00
  WS02006115WS02006116    1.00   0.03  0.00  0.00  0.96  0.00  0.00  0.01  0.00  0.00
  WS02006113WS02006111    1.00   0.03  0.00  0.00  0.03  0.94  0.00  0.00  0.19  0.00
  WS02006112WS02006115    1.00   0.03  0.00  0.00  0.97  0.00  0.00  0.00  0.00  0.00
  WS02006111WS02006112    1.00   0.03  0.00  0.00  0.97  0.00  0.00  0.00  0.90  0.00
  WS02006110WS02006113    1.00   0.01  0.01  0.00  0.97  0.00  0.00  0.00  0.00  0.00
  WS02006109WS02006110    1.00   0.00  0.01  0.00  0.98  0.00  0.01  0.00  0.00  0.00
  WS02004411WS02004412    1.00   0.05  0.00  0.00  0.95  0.00  0.00  0.00  0.00  0.00
  WS02004401WS02004402    1.00   0.03  0.00  0.00  0.97  0.00  0.00  0.00  0.00  0.00
  WS02004413WS02003067    1.00   0.05  0.02  0.00  0.00  0.00  0.93  0.00  0.00  0.00
  WS02004412WS02004413    1.00   0.05  0.00  0.00  0.95  0.00  0.00  0.00  0.04  0.00
  WS02004410WS02004411    1.00   0.05  0.00  0.00  0.95  0.00  0.00  0.00  0.04  0.00
  WS02004409WS02004410    1.00   0.05  0.00  0.00  0.95  0.00  0.00  0.00  0.01  0.00
  WS02004407WS02004409    1.00   0.05  0.00  0.00  0.95  0.00  0.00  0.00  0.89  0.00
  WS02004406WS02004407    1.00   0.00  0.05  0.00  0.95  0.00  0.00  0.00  0.00  0.00
  WS02004405WS02004406    1.00   0.00  0.00  0.00  1.00  0.00  0.00  0.00  0.01  0.00
  WS02004404WS02004405    1.00   0.00  0.00  0.00  1.00  0.00  0.00  0.00  0.00  0.00
  WS02004403WS02004404    1.00   0.00  0.03  0.00  0.97  0.00  0.00  0.00  0.01  0.00
  WS02004402WS02004403    1.00   0.03  0.00  0.00  0.97  0.00  0.00  0.00  0.00  0.00
  WS02004139WS02001211    1.00   0.00  0.00  0.00  0.99  0.00  0.01  0.00  0.00  0.00
  WS02004138WS02004139    1.00   0.00  0.00  0.00  0.98  0.01  0.00  0.00  1.00  0.00
  WS02003067WS02003066    1.00   0.07  0.01  0.00  0.92  0.00  0.00  0.00  0.00  0.00
  WS02001213WS02003059    1.00   0.00  0.01  0.00  0.99  0.00  0.00  0.00  0.00  0.00
  WS02001212WS02001213    1.00   0.01  0.00  0.00  0.46  0.00  0.53  0.00  0.00  0.00
  WS02001211WS02001212    1.00   0.00  0.01  0.00  0.99  0.00  0.00  0.00  0.00  0.00
  WS02003072WS02003073    1.00   0.00  0.00  0.00  0.00  0.00  0.00  1.00  0.00  0.00
  WS02003069WS02003072    1.00   0.00  0.00  0.00  0.99  0.01  0.00  0.00  0.65  0.00
  WS02003060WS02003069    1.00   0.00  0.00  0.00  0.96  0.04  0.00  0.00  0.43  0.00
  WS02003059WS02003060    1.00   0.00  0.00  0.00  0.99  0.01  0.00  0.00  0.02  0.00
  HS02004901HS02004770    1.00   0.05  0.00  0.00  0.95  0.00  0.00  0.00  0.00  0.00
  HS02004876HS02004881    1.00   0.03  0.00  0.00  0.84  0.13  0.00  0.00  0.00  0.00
  HS02004870HS02004876    1.00   0.01  0.00  0.00  0.99  0.00  0.00  0.00  0.95  0.00
  HS02004842HS02004848    1.00   0.00  0.05  0.00  0.94  0.00  0.00  0.00  0.57  0.00
  HS02004837HS02004842    1.00   0.00  0.00  0.00  0.99  0.01  0.00  0.00  0.11  0.00
  HS02004830HS02004837    1.00   0.00  0.00  0.00  1.00  0.00  0.00  0.00  0.99  0.00
  HS02004824HS02004830    1.00   0.00  0.00  0.00  1.00  0.00  0.00  0.00  0.03  0.00
  HS02004817HS02004824    1.00   0.00  0.00  0.00  1.00  0.00  0.00  0.00  0.94  0.00
  HS02004770HS02004777    1.00   0.00  0.05  0.00  0.95  0.00  0.00  0.00  0.03  0.00
  HS02004799HS02004480    1.00   0.00  0.03  0.00  0.94  0.00  0.03  0.00  0.00  0.00
  HS02004792HS02004799    1.00   0.00  0.00  0.00  0.98  0.02  0.00  0.00  0.98  0.00
  HS02004788HS02004792    1.00   0.00  0.00  0.00  0.99  0.01  0.00  0.00  0.98  0.00
  HS02004785HS02004788    1.00   0.00  0.00  0.00  1.00  0.00  0.00  0.00  0.00  0.00
  HS02004777HS02004785    1.00   0.00  0.00  0.00  1.00  0.00  0.00  0.00  0.13  0.00
  HS02004480HS02004478    1.00   0.06  0.00  0.00  0.68  0.00  0.00  0.26  0.00  0.00
  HS02004479HS02004480    1.00   0.03  0.00  0.00  0.97  0.00  0.00  0.00  0.12  0.00
  HS02004862HS02004870    1.00   0.00  0.00  0.00  1.00  0.00  0.00  0.00  0.04  0.00
  HS02004848HS02004852    1.00   0.06  0.00  0.00  0.94  0.00  0.00  0.00  0.78  0.00
  HS02004856HS02004862    1.00   0.00  0.07  0.00  0.93  0.00  0.00  0.00  0.82  0.00
  HS02004852HS02004856    1.00   0.05  0.00  0.00  0.94  0.00  0.00  0.00  0.77  0.00
  HS02004802HS02004478    1.00   0.06  0.00  0.00  0.94  0.00  0.00  0.00  0.03  0.00
  HS02004478WS02006287    1.00   0.06  0.00  0.00  0.71  0.23  0.00  0.00  0.62  0.00
  HS02004817HS02004807    1.00   0.00  0.06  0.00  0.94  0.00  0.00  0.00  0.01  0.00
  HS02004807HS02004802    1.00   0.06  0.00  0.00  0.94  0.00  0.00  0.00  0.00  0.00
  YS02001759YS02001757    1.00   0.00  0.00  0.00  1.00  0.00  0.00  0.00  0.16  0.00
  YS02001762YS02001759    1.00   0.00  0.00  0.00  1.00  0.00  0.00  0.00  0.03  0.00
  YS02001765YS02001762    1.00   0.00  0.00  0.00  1.00  0.00  0.00  0.00  0.14  0.00
  YS02001770YS02001767    1.00   0.00  0.00  0.00  1.00  0.00  0.00  0.00  0.00  0.00
  YS02001774YS02001770    1.00   0.00  0.05  0.00  0.94  0.00  0.00  0.00  0.03  0.00
  YS02001779YS02001774    1.00   0.00  0.00  0.00  1.00  0.00  0.00  0.00  0.18  0.00
  YS02001649YS02001757    1.00   0.00  0.00  0.00  1.00  0.00  0.00  0.00  0.16  0.00
  YS02001767YS02001765    1.00   0.00  0.00  0.00  1.00  0.00  0.00  0.00  0.00  0.00
  YS02006561YS02001783    1.00   0.07  0.00  0.00  0.66  0.27  0.00  0.00  0.51  0.00
  YS02001783YS02001784    1.00   0.00  0.07  0.00  0.93  0.00  0.00  0.00  0.00  0.00
  YS02001784YS02001785    1.00   0.00  0.00  0.00  1.00  0.00  0.00  0.00  0.17  0.00
  YS02001788YS02001790    1.00   0.00  0.00  0.00  0.78  0.22  0.00  0.00  0.38  0.00
  YS02001790YS02001791    1.00   0.00  0.00  0.00  0.74  0.26  0.00  0.00  0.17  0.00
  YS02001791YS02001793    1.00   0.00  0.00  0.00  0.75  0.25  0.00  0.00  0.03  0.00
  YS02001910YS02001907    1.00   0.00  0.00  0.00  0.97  0.00  0.00  0.03  0.12  0.00
  YS02001786YS02001788    1.00   0.00  0.00  0.00  0.75  0.25  0.00  0.00  0.00  0.00
  YS02001915YS02001910    1.00   0.00  0.00  0.00  0.98  0.02  0.00  0.00  0.16  0.00
  YS02001918YS02001915    1.00   0.00  0.01  0.00  0.97  0.02  0.00  0.00  0.52  0.00
  YS02001923YS02001920    1.00   0.00  0.00  0.00  1.00  0.00  0.00  0.00  0.74  0.00
  YS02001926YS02001923    1.00   0.00  0.04  0.00  0.23  0.00  0.73  0.00  0.00  0.00
  YS02001929YS02001926    1.00   0.00  0.05  0.00  0.95  0.00  0.00  0.00  0.66  0.00
  YS02001920YS02001918    1.00   0.00  0.01  0.00  0.99  0.00  0.00  0.00  0.00  0.00
  YS02001629YS02163301    1.00   0.06  0.00  0.00  0.94  0.00  0.00  0.00  0.00  0.00
  YS02001619YS02001622    1.00   0.05  0.00  0.00  0.95  0.00  0.00  0.00  0.00  0.00
  YS02001622YS02001625    1.00   0.06  0.00  0.00  0.94  0.00  0.00  0.00  0.05  0.00
  YS02001625YS02001629    1.00   0.06  0.01  0.00  0.92  0.00  0.01  0.00  0.00  0.00
  YS02163301YS02001633    1.00   0.00  0.06  0.00  0.94  0.00  0.00  0.00  0.00  0.00
  YS02163601YS02164001    1.00   0.00  0.04  0.00  0.96  0.00  0.00  0.00  0.00  0.00
  YS02164001YS02001641    1.00   0.01  0.03  0.00  0.96  0.00  0.00  0.00  0.06  0.00
  YS02001641YS02001644    1.00   0.00  0.01  0.00  0.99  0.00  0.00  0.00  0.00  0.00
  YS02001647YS02001649    1.00   0.00  0.06  0.00  0.93  0.00  0.00  0.00  0.01  0.00
  YS02006553YS02006556    1.00   0.02  0.00  0.00  0.98  0.00  0.00  0.00  0.03  0.00
  YS02006556YS02006558    1.00   0.00  0.00  0.00  1.00  0.00  0.00  0.00  0.00  0.00
  YSB6556YSB1171          1.00   0.04  0.02  0.00  0.95  0.00  0.00  0.00  0.00  0.00
  YS02001907YS02006553    1.00   0.00  0.03  0.00  0.97  0.00  0.00  0.00  0.00  0.00
  YS02006558YS02006561    1.00   0.07  0.00  0.00  0.26  0.67  0.00  0.00  0.43  0.00
  YS02001633YS02163601    1.00   0.00  0.01  0.00  0.99  0.00  0.00  0.00  0.15  0.00
  YS02001644YS02001647    1.00   0.00  0.07  0.00  0.93  0.00  0.00  0.00  0.00  0.00
  YS02001745YS02001748    1.00   0.00  0.00  0.00  0.91  0.00  0.00  0.09  0.01  0.00
  YS02001748YS02001751    1.00   0.00  0.00  0.00  0.98  0.02  0.00  0.00  0.14  0.00
  YS02001751YS02001754    1.00   0.00  0.00  0.00  0.93  0.00  0.00  0.07  0.01  0.00
  YS02001754YS02001757    1.00   0.00  0.00  0.00  0.99  0.01  0.00  0.00  0.18  0.00
  YS02001882YS02001884    1.00   0.06  0.00  0.00  0.94  0.00  0.00  0.00  0.00  0.00
  YS02001884YS02001887    1.00   0.04  0.01  0.00  0.95  0.00  0.00  0.00  0.00  0.00
  YS02001890YS02001895    1.00   0.00  0.06  0.00  0.94  0.00  0.00  0.00  0.00  0.00
  YS02001895YS02001898    1.00   0.06  0.00  0.00  0.93  0.00  0.01  0.00  0.00  0.00
  YS02001898YS02001901    1.00   0.06  0.00  0.00  0.94  0.00  0.00  0.00  0.01  0.00
  YS02001901YS02001904    1.00   0.06  0.00  0.00  0.94  0.00  0.00  0.00  0.00  0.00
  YS02001904YS02001907    1.00   0.00  0.06  0.00  0.94  0.00  0.00  0.00  0.00  0.00
  YS02001887YS02001890    1.00   0.00  0.00  0.00  0.97  0.00  0.03  0.00  0.00  0.00
  YS02001652YS02001649    1.00   0.00  0.00  0.00  1.00  0.00  0.00  0.00  0.16  0.00
  YS02001655YS02001652    1.00   0.00  0.00  0.00  0.93  0.00  0.00  0.07  0.01  0.00
  YS02001658YS02001655    1.00   0.00  0.06  0.00  0.92  0.02  0.00  0.00  0.02  0.00
  YS02001661YS02001658    1.00   0.06  0.00  0.00  0.91  0.04  0.00  0.00  0.00  0.00
  YS02001664YS02001661    1.00   0.05  0.00  0.00  0.92  0.03  0.00  0.00  0.11  0.00
  YSB1154YSB6556          1.00   0.05  0.00  0.00  0.95  0.00  0.00  0.00  0.02  0.00
  YSB1174YSB1171          1.00   0.04  0.01  0.00  0.95  0.00  0.00  0.00  0.00  0.00
  YSB1171HS02004479       1.00   0.04  0.00  0.00  0.96  0.00  0.00  0.00  0.11  0.00
  HS02004881HS02006253    1.00   0.04  0.00  0.00  0.45  0.08  0.00  0.43  0.36  0.00
  YS02001793JiankangQianchi    1.00   0.00  0.00  0.00  0.94  0.06  0.00  0.00  0.23  0.00
  YS02001757CaochengTiaoxuchi    1.00   0.00  0.08  0.00  0.88  0.04  0.00  0.00  0.00  0.00
  WSF200WS02003060        1.00   0.00  0.08  0.00  0.29  0.63  0.00  0.00  0.28  0.00
  1                       1.00   0.00  0.00  0.00  0.00  1.00  0.00  0.00  0.33  0.00
  2                       1.00   0.84  0.00  0.00  0.00  0.16  0.00  0.00  0.05  0.00
  3                       1.00   0.60  0.00  0.00  0.00  0.40  0.00  0.00  0.39  0.00
  4                       1.00   1.00  0.00  0.00  0.00  0.00  0.00  0.00  0.00  0.00
  
  
  *************************
  Conduit Surcharge Summary
  *************************
  
  ----------------------------------------------------------------------------
                                                           Hours        Hours 
                         --------- Hours Full --------   Above Full   Capacity
  Conduit                Both Ends  Upstream  Dnstream   Normal Flow   Limited
  ----------------------------------------------------------------------------
  WS02006229WS02006228        1.24      1.26      1.24      2.07         1.24
  WS02006256WS02006235        4.90      4.91      7.20      1.48         0.01
  WS02006252WS02006251        0.23      0.23      0.64      0.53         0.01
  WS02006251WS02006249        0.01      0.01      0.01      0.25         0.01
  WS02006249WS02006248        0.01      0.01      0.01      1.85         0.01
  WS02006248WS02006247        0.01      0.01      0.01      0.01         0.01
  WS02006247WS02006245        0.01      0.01      0.01      3.00         0.01
  WS02006245WS02006243        0.01      0.01      0.11      0.09         0.01
  WS02006243WS02006242        0.13      0.13      0.51      0.01         0.01
  WS02006242WS02006240        0.38      0.38      0.68      0.65         0.01
  WS02006240WS02006239        0.43      0.43      0.58      0.06         0.01
  WS02006239WS02006238        0.71      0.71      0.74      0.08         0.01
  WS02006238WS02006235        0.73      0.73      0.83      0.01         0.01
  WS02006235WS02006234        0.62      0.62      0.70      4.59         0.04
  WS02006234WS02006232        0.69      0.69      0.96      0.01         0.01
  WS02006232WS02006231        0.62      0.62      0.96      0.01         0.01
  WS02006231WS02006230        0.60      0.60      0.63      4.96         0.03
  WS02006230WS02006229        1.68      1.88      1.68      5.75         1.55
  WS02006228WS02006109        1.25      1.47      1.25      2.80         1.25
  WS02006116WS02004401        0.35      0.35      0.37      0.27         0.26
  WS02006115WS02006116        0.18      0.19      0.19      0.10         0.09
  WS02006112WS02006115        0.15      0.15      1.02      0.01         0.01
  WS02006111WS02006112        0.01      0.01      2.15      0.01         0.01
  WS02006110WS02006113        0.01      0.01      1.34      0.01         0.01
  WS02006109WS02006110        0.86      0.86      1.47      0.86         0.01
  WS02004411WS02004412        0.01      0.01      0.01      0.32         0.01
  WS02004401WS02004402        0.37      0.37      0.47      0.01         0.01
  WS02004410WS02004411        0.01      0.01      0.01      0.25         0.01
  WS02004409WS02004410        0.01      0.01      0.01      0.11         0.01
  WS02004406WS02004407        0.01      0.01      0.59      0.01         0.01
  WS02004405WS02004406        0.59      0.62      0.59      0.95         0.59
  WS02004404WS02004405        0.62      0.64      0.62      5.72         0.62
  WS02004403WS02004404        0.49      0.49      0.64      0.01         0.01
  WS02004402WS02004403        0.47      0.47      0.49      0.34         0.32
  WS02003072WS02003073        0.01      0.01      0.01      1.50         0.01
  HS02004876HS02004881        0.01      0.01      0.01      0.49         0.01
  HS02004785HS02004788        0.01      0.01      0.01      0.35         0.01
  HS02004480HS02004478        0.01      0.01      0.01      0.79         0.01
  YS02001759YS02001757        6.09      6.09      6.12      0.01         0.01
  YS02001762YS02001759        6.09      6.09      6.09      0.01         0.01
  YS02001765YS02001762        6.08      6.08      6.09      0.01         0.01
  YS02001770YS02001767        6.07      6.07      6.07      0.75         0.64
  YS02001774YS02001770        6.07      6.07      6.08      0.01         0.01
  YS02001779YS02001774        6.04      6.04      6.08      0.01         0.01
  YS02001649YS02001757        6.08      6.08      6.12      0.01         0.01
  YS02001767YS02001765        6.07      6.07      6.08      0.01         0.01
  YS02006561YS02001783        1.67      1.67      2.15      0.01         0.01
  YS02001783YS02001784        2.15      2.15      2.22      2.03         1.97
  YS02001784YS02001785        2.16      2.22      2.16      2.74         2.16
  YS02001788YS02001790        2.14      2.14      4.33      0.01         0.01
  YS02001790YS02001791        4.33      4.33      4.49      1.52         1.52
  YS02001791YS02001793        4.49      4.49      4.92      0.01         0.01
  YS02001910YS02001907        1.95      1.95      2.27      0.01         0.01
  YS02001786YS02001788        2.14      2.16      2.14      2.39         2.14
  YS02001915YS02001910        1.78      1.78      1.95      0.01         0.01
  YS02001918YS02001915        1.56      1.56      1.78      0.01         0.01
  YS02001923YS02001920        1.36      1.36      1.60      0.01         0.01
  YS02001926YS02001923        0.01      0.01      0.01      0.01         0.01
  YS02001929YS02001926        0.01      0.01      0.01      0.01         0.01
  YS02001920YS02001918        1.56      1.56      1.60      0.01         0.01
  YS02001629YS02163301        6.06      6.06      6.07      0.01         0.01
  YS02001619YS02001622        6.02      6.02      6.02      0.01         0.01
  YS02001622YS02001625        6.02      6.02      6.05      0.01         0.01
  YS02001625YS02001629        6.02      6.02      6.05      0.01         0.01
  YS02163301YS02001633        6.07      6.07      6.08      0.01         0.01
  YS02163601YS02164001        6.08      6.08      6.09      0.01         0.01
  YS02164001YS02001641        6.08      6.08      6.08      0.01         0.02
  YS02001641YS02001644        6.08      6.08      6.08      2.21         2.30
  YS02001647YS02001649        6.05      6.05      6.08      0.01         0.01
  YS02006553YS02006556        2.12      2.12      2.31      0.01         0.01
  YS02006556YS02006558        2.19      2.19      2.38      0.01         0.01
  YSB6556YSB1171              0.01      0.01      0.14      0.01         0.01
  YS02001907YS02006553        2.76      2.76      2.95      0.01         0.01
  YS02006558YS02006561        1.86      2.09      1.86      2.63         1.86
  YS02001633YS02163601        6.08      6.08      6.09      0.01         0.01
  YS02001644YS02001647        6.05      6.05      6.08      0.01         0.01
  YS02001745YS02001748        0.01      0.01      5.99      0.01         0.01
  YS02001748YS02001751        6.00      6.00      6.02      0.01         0.01
  YS02001751YS02001754        6.02      6.02      6.05      0.01         0.01
  YS02001754YS02001757        6.05      6.05      6.12      0.01         0.01
  YS02001882YS02001884        1.78      1.78      1.81      0.01         0.01
  YS02001884YS02001887        1.85      1.85      1.88      0.01         0.01
  YS02001890YS02001895        1.76      1.76      1.97      0.01         0.01
  YS02001895YS02001898        1.75      1.75      1.76      0.01         0.01
  YS02001898YS02001901        1.77      1.77      1.86      0.01         0.01
  YS02001901YS02001904        1.83      1.83      1.86      0.01         0.01
  YS02001904YS02001907        1.83      1.83      2.33      0.01         0.01
  YS02001887YS02001890        1.91      1.91      1.93      0.20         0.01
  YS02001652YS02001649        6.06      6.06      6.08      0.01         0.01
  YS02001655YS02001652        6.02      6.02      6.05      0.01         0.01
  YS02001658YS02001655        5.99      5.99      6.02      0.01         0.01
  YS02001661YS02001658        0.14      0.14      5.99      0.01         0.01
  YS02001664YS02001661        0.01      0.01      1.51      0.01         0.01
  YS02001793JiankangQianchi        4.83      4.83      6.01      0.01         0.01
  YS02001757CaochengTiaoxuchi        5.63      5.63      6.12      0.01         0.01
  
  
  ***************
  Pumping Summary
  ***************
  
  ---------------------------------------------------------------------------------------------------------
                                                  Min       Avg       Max     Total     Power    % Time Off
                        Percent   Number of      Flow      Flow      Flow    Volume     Usage    Pump Curve
  Pump                 Utilized   Start-Ups       LPS       LPS       LPS  10^6 ltr     Kw-hr    Low   High
  ---------------------------------------------------------------------------------------------------------
  CC-Pump-1               29.78           5      0.00    106.61    200.00     0.840      0.68    0.0    0.0
  CC-Pump-2               40.41           7      0.00    134.61    200.00     1.440      1.43    0.0    8.1
  JK-Pump-1               23.39           5      0.00    172.08    300.00     0.726      5.64    0.0    0.0
  JK-Pump-2               27.66           6      0.00    180.68    300.00     1.106      9.24    0.0    0.0
  XR-Pump-1               82.97           8      0.00     57.77     95.00     1.425      7.12    0.0    0.0
  XR-Pump-2               10.64           2      0.00     63.76     95.00     0.171      0.76    0.0    0.0
  XR-Pump-3                8.51           2      0.00     39.09     94.96     0.114      0.54    0.0    0.0
  XR-Pump-4               27.66           5      0.00     60.44     95.00     0.484      2.17    0.0    0.0
  

  Analysis begun on:  Wed Jan  5 17:35:40 2022
  Analysis ended on:  Wed Jan  5 17:35:42 2022
  Total elapsed time: 00:00:02