
  EPA STORM WATER MANAGEMENT MODEL - VERSION 5.1 (Build 5.3.0.dev0)
  --------------------------------------------------------------

  WARNING 04: minimum elevation drop used for Conduit WS02004404WS02004405
  WARNING 03: negative offset ignored for Link YS02001904YS02001907
  
  *********************************************************
  NOTE: The summary statistics displayed in this report are
  based on results found at every computational time step,  
  not just on results from each reporting time step.
  *********************************************************
  
  ****************
  Analysis Options
  ****************
  Flow Units ............... LPS
  Process Models:
    Rainfall/Runoff ........ YES
    RDII ................... NO
    Snowmelt ............... NO
    Groundwater ............ NO
    Flow Routing ........... YES
    Ponding Allowed ........ NO
    Water Quality .......... NO
  Infiltration Method ...... HORTON
  Flow Routing Method ...... DYNWAVE
  Surcharge Method ......... EXTRAN
  Starting Date ............ 08/28/2015 08:00:00
  Ending Date .............. 08/28/2015 15:50:00
  Antecedent Dry Days ...... 8.0
  Report Time Step ......... 00:01:00
  Wet Time Step ............ 00:01:00
  Dry Time Step ............ 00:01:00
  Routing Time Step ........ 5.00 sec
  Variable Time Step ....... YES
  Maximum Trials ........... 8
  Number of Threads ........ 4
  Head Tolerance ........... 0.001500 m
  
  
  **************************        Volume         Depth
  Runoff Quantity Continuity     hectare-m            mm
  **************************     ---------       -------
  Total Precipitation ......         5.151        11.277
  Evaporation Loss .........         0.000         0.000
  Infiltration Loss ........         1.323         2.897
  Surface Runoff ...........         2.817         6.167
  Final Storage ............         1.011         2.215
  Continuity Error (%) .....        -0.015
  
  
  **************************        Volume        Volume
  Flow Routing Continuity        hectare-m      10^6 ltr
  **************************     ---------     ---------
  Dry Weather Inflow .......         0.616         6.165
  Wet Weather Inflow .......         2.816        28.156
  Groundwater Inflow .......         0.000         0.000
  RDII Inflow ..............         0.000         0.000
  External Inflow ..........         0.102         1.024
  External Outflow .........         0.840         8.400
  Flooding Loss ............         2.122        21.216
  Evaporation Loss .........         0.000         0.000
  Exfiltration Loss ........         0.000         0.000
  Initial Stored Volume ....         0.076         0.761
  Final Stored Volume ......         0.649         6.491
  Continuity Error (%) .....        -0.008
  
  
  *************************
  Highest Continuity Errors
  *************************
  Node HS02004842 (17.04%)
  Node YS02001884 (11.19%)
  Node YSB1171 (3.39%)
  Node HS02004817 (3.15%)
  Node HS02004901 (2.52%)
  
  
  ***************************
  Time-Step Critical Elements
  ***************************
  Link WS02006252WS02006251 (45.34%)
  Link 3 (34.46%)
  Link WS02006280WS02006229 (7.52%)
  Link WS02006238WS02006235 (3.93%)
  Link WS02003066WSF200 (1.46%)
  
  
  ********************************
  Highest Flow Instability Indexes
  ********************************
  Link WS02006113WS02006111 (49)
  Link YS02163601YS02164001 (35)
  Link YS02163301YS02001633 (34)
  Link YS02001629YS02163301 (34)
  Link YS02001619YS02001622 (32)
  
  
  *************************
  Routing Time Step Summary
  *************************
  Minimum Time Step           :     0.50 sec
  Average Time Step           :     1.20 sec
  Maximum Time Step           :     5.00 sec
  Percent in Steady State     :    -0.00
  Average Iterations per Step :     4.14
  Percent Not Converging      :    19.86
  
  
  ***************************
  Subcatchment Runoff Summary
  ***************************
  
  ------------------------------------------------------------------------------------------------------------------------------
                            Total      Total      Total      Total     Imperv       Perv      Total       Total     Peak  Runoff
                           Precip      Runon       Evap      Infil     Runoff     Runoff     Runoff      Runoff   Runoff   Coeff
  Subcatchment                 mm         mm         mm         mm         mm         mm         mm    10^6 ltr      LPS
  ------------------------------------------------------------------------------------------------------------------------------
  sub0                      11.28       0.00       0.00       0.79       9.22       0.00       9.22        0.01     1.44   0.818
  sub1                      11.28       0.00       0.00       1.24       8.78       0.00       8.78        0.06    10.11   0.778
  sub2                      11.28       0.00       0.00       4.17       6.20       0.00       6.20        0.06     9.79   0.549
  sub3                      11.28       0.00       0.00       4.17       6.16       0.00       6.16        0.14    22.44   0.546
  sub4                      11.28       0.00       0.00       1.24       8.63       0.00       8.63        0.18    27.35   0.765
  sub5                      11.28       0.00       0.00       0.79       9.17       0.00       9.17        0.10    18.00   0.813
  sub7                      11.28       0.00       0.00       1.01       9.01       0.00       9.01        0.03     5.34   0.799
  sub8                      11.28       0.00       0.00       1.01       9.00       0.00       9.00        0.06    10.08   0.798
  sub9                      11.28       0.00       0.00       1.01       8.99       0.00       8.99        0.04     7.58   0.798
  sub10                     11.28       0.00       0.00       0.90       9.08       0.00       9.08        0.10    17.43   0.805
  sub11                     11.28       0.00       0.00       0.90       9.10       0.00       9.10        0.11    18.56   0.807
  sub12                     11.28       0.00       0.00       1.47       8.62       0.00       8.62        0.08    13.79   0.765
  sub14                     11.28       0.00       0.00       1.01       8.99       0.00       8.99        0.09    14.98   0.797
  sub15                     11.28       0.00       0.00       3.38       6.91       0.00       6.91        0.12    20.76   0.613
  sub16                     11.28       0.00       0.00       3.72       6.64       0.00       6.64        0.07    12.34   0.589
  sub17                     11.28       0.00       0.00       3.61       6.73       0.00       6.73        0.06    10.18   0.597
  sub22                     11.28       0.00       0.00       4.85       5.64       0.00       5.64        0.36    62.58   0.500
  sub23                     11.28       0.00       0.00       4.17       6.23       0.00       6.23        0.30    52.29   0.553
  sub60                     11.28       0.00       0.00       1.35       7.08       0.00       7.08        2.14   214.31   0.627
  sub61                     11.28       0.00       0.00       1.92       7.22       0.00       7.22        2.23   246.69   0.640
  sub62                     11.28       0.00       0.00       0.90       7.84       0.00       7.84        2.41   259.66   0.695
  sub63                     11.28       0.00       0.00       3.27       6.33       0.00       6.33        1.92   219.77   0.561
  sub64                     11.28       0.00       0.00       1.69       6.79       0.00       6.79        2.06   204.52   0.602
  sub65                     11.28       0.00       0.00       1.47       6.90       0.00       6.90        2.12   208.50   0.612
  sub66                     11.28       0.00       0.00       3.27       5.83       0.00       5.83        1.79   183.42   0.517
  sub67                     11.28       0.00       0.00       0.90       8.30       0.00       8.30        2.56   301.39   0.736
  sub68                     11.28       0.00       0.00       1.58       7.60       0.00       7.60        2.34   264.96   0.674
  sub69                     11.28       0.00       0.00       1.69       7.90       0.00       7.90        1.85   237.25   0.701
  sub70                     11.28       8.07       0.00       6.54      10.49       0.03      10.52        2.41   252.63   0.544
  sub71                     11.28       0.00       0.00       0.90       7.63       0.00       7.63        1.80   186.96   0.676
  sub72                     11.28       0.00       0.00       0.79       6.02       0.00       6.02        1.23   100.40   0.534
  sub73                     11.28      10.24       0.00       7.30      11.40       0.02      11.42        2.68   238.40   0.531
  sub74                     11.28       0.00       0.00       8.46       2.36       0.00       2.36        0.94   126.51   0.209
  
  
  ******************
  Node Depth Summary
  ******************
  
  ---------------------------------------------------------------------------------
                                 Average  Maximum  Maximum  Time of Max    Reported
                                   Depth    Depth      HGL   Occurrence   Max Depth
  Node                 Type       Meters   Meters   Meters  days hr:min      Meters
  ---------------------------------------------------------------------------------
  WS02001211           JUNCTION     0.47     0.67     5.51     0  06:31        0.67
  WS02001212           JUNCTION     0.23     0.38     5.45     0  06:31        0.38
  WS02001213           JUNCTION     0.45     0.61     5.37     0  06:32        0.60
  WS02003069           JUNCTION     0.30     0.43     5.02     0  02:13        0.43
  WS02003072           JUNCTION     0.36     0.50     4.87     0  02:14        0.50
  WS02003073           JUNCTION     0.21     0.30     4.37     0  02:15        0.30
  WS02003060           JUNCTION     0.27     0.39     5.32     0  02:13        0.39
  WS02003066           JUNCTION     0.19     0.28     5.83     0  02:12        0.28
  WS02003059           JUNCTION     0.52     0.67     5.35     0  06:33        0.67
  WS02003067           JUNCTION     0.48     0.67     5.99     0  02:12        0.67
  WS02004401           JUNCTION     0.56     0.79     6.79     0  02:09        0.79
  WS02004402           JUNCTION     0.59     0.81     6.77     0  02:09        0.81
  WS02004403           JUNCTION     0.61     0.83     6.76     0  02:09        0.83
  WS02004404           JUNCTION     0.68     0.91     6.76     0  02:10        0.91
  WS02004406           JUNCTION     0.70     0.91     6.74     0  02:10        0.91
  WS02004409           JUNCTION     0.37     0.60     6.37     0  02:11        0.60
  WS02004410           JUNCTION     0.40     0.62     6.34     0  02:11        0.62
  WS02004411           JUNCTION     0.42     0.63     6.31     0  02:11        0.63
  WS02004412           JUNCTION     0.44     0.65     6.29     0  02:12        0.65
  WS02004413           JUNCTION     0.59     0.81     6.28     0  02:12        0.81
  WS02004405           JUNCTION     0.68     0.90     6.75     0  02:10        0.90
  WS02006109           JUNCTION     0.63     0.87     7.49     0  02:06        0.87
  WS02006110           JUNCTION     0.64     0.85     7.44     0  02:07        0.85
  WS02006111           JUNCTION     0.17     0.26     6.97     0  02:06        0.26
  WS02006112           JUNCTION     0.71     0.97     6.85     0  02:08        0.97
  WS02006113           JUNCTION     0.26     0.41     7.30     0  02:08        0.41
  WS02006115           JUNCTION     0.44     0.68     6.82     0  02:09        0.68
  WS02006116           JUNCTION     0.53     0.76     6.80     0  02:09        0.76
  WS02006230           JUNCTION     0.55     0.84     7.58     0  02:07        0.84
  WS02006231           JUNCTION     0.33     0.51     7.63     0  04:13        0.51
  WS02006232           JUNCTION     0.45     0.66     7.70     0  04:13        0.66
  WS02006234           JUNCTION     0.35     0.57     7.73     0  04:12        0.57
  WS02006235           JUNCTION     0.38     0.61     7.77     0  04:12        0.61
  WS02006238           JUNCTION     0.40     0.64     7.79     0  04:12        0.64
  WS02006240           JUNCTION     0.30     0.58     7.87     0  04:12        0.58
  WS02006242           JUNCTION     0.35     0.67     7.94     0  04:11        0.67
  WS02006243           JUNCTION     0.23     0.56     7.98     0  04:11        0.56
  WS02006245           JUNCTION     0.23     0.55     8.04     0  04:11        0.55
  WS02006247           JUNCTION     0.25     0.58     8.08     0  04:11        0.58
  WS02006248           JUNCTION     0.21     0.53     8.12     0  04:11        0.53
  WS02006249           JUNCTION     0.25     0.57     8.17     0  04:10        0.57
  WS02006239           JUNCTION     0.35     0.62     7.83     0  04:12        0.62
  WS02006251           JUNCTION     0.23     0.59     8.26     0  04:10        0.59
  WS02006252           JUNCTION     0.20     0.59     8.83     0  04:09        0.58
  WS02006253           JUNCTION     0.27     0.62     8.27     0  04:10        0.62
  WS02006256           JUNCTION     0.80     1.19     8.13     0  03:50        1.19
  WS02004138           JUNCTION     0.07     0.17     7.41     0  06:30        0.17
  WS02004407           JUNCTION     0.17     0.27     6.58     0  02:10        0.27
  WS02006228           JUNCTION     0.61     0.89     7.54     0  02:07        0.89
  WS02006229           JUNCTION     0.58     0.87     7.57     0  02:07        0.87
  WS02006280           JUNCTION     0.07     0.16     8.44     0  02:09        0.16
  WS02006284           JUNCTION     0.37     0.51     8.91     0  02:09        0.51
  WS02006287           JUNCTION     0.10     0.24     9.20     0  02:09        0.24
  WSF200               JUNCTION     0.16     0.27     5.50     0  02:12        0.27
  HS02004901           JUNCTION     0.12     0.25    10.07     0  02:07        0.25
  HS02004881           JUNCTION     0.01     0.03     9.06     0  02:08        0.03
  HS02004876           JUNCTION     0.04     0.11     9.14     0  02:05        0.11
  HS02004870           JUNCTION     0.01     0.05     9.34     0  02:09        0.05
  HS02004862           JUNCTION     0.02     0.06     9.44     0  02:09        0.06
  HS02004856           JUNCTION     0.08     0.11     9.54     0  02:09        0.11
  HS02004852           JUNCTION     0.01     0.04     9.55     0  02:09        0.04
  HS02004848           JUNCTION     0.01     0.04     9.64     0  02:09        0.04
  HS02004842           JUNCTION     0.34     0.37     9.64     0  02:09        0.37
  HS02004837           JUNCTION     0.03     0.06     9.64     0  02:09        0.06
  HS02004830           JUNCTION     0.04     0.07     9.54     0  02:09        0.07
  HS02004824           JUNCTION     0.02     0.05     9.45     0  02:10        0.05
  HS02004817           JUNCTION     0.44     0.56     9.40     0  02:09        0.56
  HS02004807           JUNCTION     0.12     0.23     9.40     0  02:09        0.23
  HS02004802           JUNCTION     0.16     0.26     9.39     0  02:09        0.26
  HS02004799           JUNCTION     0.12     0.28     9.49     0  02:07        0.28
  HS02004792           JUNCTION     0.03     0.11     9.63     0  02:07        0.11
  HS02004788           JUNCTION     0.03     0.08     9.98     0  02:08        0.08
  HS02004785           JUNCTION     0.05     0.15    10.05     0  02:08        0.15
  HS02004777           JUNCTION     0.15     0.27    10.06     0  02:07        0.27
  HS02004770           JUNCTION     0.12     0.24    10.07     0  02:07        0.24
  HS02004480           JUNCTION     0.08     0.22     9.46     0  02:07        0.22
  HS02004479           JUNCTION     0.12     0.26     9.46     0  02:08        0.26
  HS02004478           JUNCTION     0.06     0.15     9.38     0  02:09        0.15
  YS02001745           JUNCTION     0.71     0.89     8.40     0  02:58        0.88
  YS02001748           JUNCTION     1.11     1.33     8.41     0  02:56        1.33
  YS02001751           JUNCTION     1.29     1.54     8.42     0  03:00        1.53
  YS02001754           JUNCTION     1.53     1.82     8.43     0  03:01        1.81
  YS02001762           JUNCTION     1.73     2.03     8.43     0  03:04        2.02
  YS02001765           JUNCTION     1.68     1.98     8.43     0  02:59        1.97
  YS02001767           JUNCTION     1.65     1.93     8.42     0  02:58        1.92
  YS02001770           JUNCTION     1.64     1.91     8.41     0  02:58        1.90
  YS02001774           JUNCTION     1.71     1.98     8.40     0  03:00        1.97
  YS02001779           JUNCTION     1.46     1.68     8.37     0  02:32        1.68
  YS02001882           JUNCTION     0.46     1.18     7.90     0  02:57        1.18
  YS02001884           JUNCTION     0.55     1.28     7.90     0  02:57        1.28
  YS02001759           JUNCTION     1.76     2.07     8.44     0  02:58        2.06
  YS02001887           JUNCTION     0.63     1.36     7.90     0  02:57        1.35
  YS02001890           JUNCTION     0.66     1.39     7.90     0  02:56        1.39
  YS02001898           JUNCTION     0.43     1.15     7.88     0  02:57        1.14
  YS02001901           JUNCTION     0.55     1.28     7.89     0  02:56        1.27
  YS02001904           JUNCTION     0.53     1.24     7.87     0  02:56        1.24
  YS02001907           JUNCTION     0.86     1.59     7.88     0  02:57        1.58
  YS02001910           JUNCTION     0.65     1.37     7.88     0  02:58        1.37
  YS02001915           JUNCTION     0.45     1.16     7.88     0  02:58        1.16
  YS02001918           JUNCTION     0.20     0.81     7.88     0  02:58        0.81
  YS02001619           JUNCTION     1.25     1.47     8.40     0  02:31        1.47
  YS02001629           JUNCTION     1.59     1.84     8.39     0  02:32        1.84
  YS02001641           JUNCTION     1.69     1.93     8.37     0  02:52        1.93
  YS02001644           JUNCTION     1.70     1.92     8.35     0  02:31        1.92
  YS02001652           JUNCTION     1.55     2.07     8.67     0  02:35        1.91
  YS02001655           JUNCTION     1.31     2.15     9.00     0  02:17        1.73
  YS02001920           JUNCTION     0.30     0.87     7.88     0  02:58        0.87
  YS02001923           JUNCTION     0.15     0.62     7.88     0  02:58        0.62
  YS02001926           JUNCTION     0.21     0.44     7.88     0  02:58        0.44
  YS02001929           JUNCTION     0.10     0.17     7.87     0  02:57        0.17
  YS02001658           JUNCTION     1.05     2.30     9.44     0  02:17        1.51
  YS02001661           JUNCTION     0.82     1.91     9.31     0  02:35        1.30
  YS02001664           JUNCTION     0.37     0.57     8.50     0  03:16        0.56
  YS02001622           JUNCTION     1.27     1.50     8.40     0  02:49        1.49
  YS02001633           JUNCTION     1.68     1.94     8.40     0  02:31        1.94
  YS02001649           JUNCTION     1.74     2.05     8.44     0  02:35        2.05
  YS02001757           JUNCTION     1.86     2.18     8.44     0  02:59        2.17
  YS02001895           JUNCTION     0.43     1.14     7.89     0  02:56        1.14
  YS02001625           JUNCTION     1.55     1.78     8.38     0  02:30        1.78
  YS02163301           JUNCTION     1.62     1.88     8.40     0  02:31        1.87
  YS02163601           JUNCTION     1.74     1.99     8.39     0  02:31        1.98
  YS02164001           JUNCTION     1.67     1.92     8.38     0  02:31        1.91
  YS02001647           JUNCTION     1.53     1.80     8.41     0  02:35        1.79
  YSB1154              JUNCTION     0.25     0.41     9.47     0  02:08        0.41
  YSB6556              JUNCTION     0.15     0.30     9.47     0  02:08        0.30
  YSB1174              JUNCTION     0.21     0.36     9.47     0  02:08        0.36
  YSB1171              JUNCTION     0.41     0.56     9.47     0  02:08        0.56
  YS02006553           JUNCTION     0.86     1.58     7.86     0  02:59        1.57
  YS02006561           JUNCTION     0.26     0.80     7.46     0  02:57        0.80
  YS02006556           JUNCTION     0.83     1.53     7.84     0  02:57        1.53
  YS02006558           JUNCTION     0.87     1.57     7.84     0  02:57        1.56
  YS02001783           JUNCTION     0.54     1.23     7.37     0  02:57        1.22
  YS02001784           JUNCTION     0.58     1.21     7.27     0  02:59        1.20
  YS02001786           JUNCTION     0.56     1.10     7.13     0  02:56        1.09
  YS02001788           JUNCTION     0.54     1.01     6.99     0  02:59        1.00
  YS02001790           JUNCTION     0.75     1.21     6.86     0  02:58        1.21
  YS02001791           JUNCTION     0.83     1.60     7.07     0  01:58        1.24
  YS02001793           JUNCTION     1.27     1.80     6.63     0  02:03        1.79
  WS02004139           JUNCTION     0.40     0.61     5.52     0  06:30        0.61
  WSC                  OUTFALL      0.21     0.30     0.97     0  02:15        0.30
  3                    OUTFALL      0.04     0.19     6.19     0  03:50        0.19
  4                    OUTFALL      0.00     0.07     7.07     0  04:10        0.07
  5                    OUTFALL      0.00     0.00     5.00     0  00:00        0.00
  JK-storage           STORAGE      4.94     5.80     6.60     0  02:01        5.80
  CC-storage           STORAGE      1.13     1.39     8.39     0  02:56        1.39
  XR-storage           STORAGE      7.69     7.72     5.72     0  00:39        7.72
  
  
  *******************
  Node Inflow Summary
  *******************
  
  -------------------------------------------------------------------------------------------------
                                  Maximum  Maximum                  Lateral       Total        Flow
                                  Lateral    Total  Time of Max      Inflow      Inflow     Balance
                                   Inflow   Inflow   Occurrence      Volume      Volume       Error
  Node                 Type           LPS      LPS  days hr:min    10^6 ltr    10^6 ltr     Percent
  -------------------------------------------------------------------------------------------------
  WS02001211           JUNCTION      7.35   277.41     0  06:30       0.207        1.88       0.724
  WS02001212           JUNCTION      0.00   267.01     0  06:31           0        1.87       0.303
  WS02001213           JUNCTION      0.00   264.66     0  06:31           0        1.87       0.557
  WS02003069           JUNCTION      0.32   561.72     0  02:13     0.00902        7.28       0.142
  WS02003072           JUNCTION      0.00   561.40     0  02:14           0        7.27       0.207
  WS02003073           JUNCTION      1.82   562.99     0  02:14      0.0514        7.31       0.199
  WS02003060           JUNCTION     16.53   561.62     0  02:12       0.466        7.29       0.139
  WS02003066           JUNCTION      0.00   450.73     0  02:12           0        4.99       0.053
  WS02003059           JUNCTION      0.00   259.72     0  06:32           0        1.86       1.179
  WS02003067           JUNCTION      0.00   450.65     0  02:12           0        4.99       0.125
  WS02004401           JUNCTION      0.00   454.93     0  02:09           0        5.15       0.286
  WS02004402           JUNCTION      0.00   454.56     0  02:09           0        5.14       0.281
  WS02004403           JUNCTION      0.00   454.15     0  02:09           0        5.12       0.266
  WS02004404           JUNCTION      0.16   454.35     0  02:09     0.00457        5.11       0.211
  WS02004406           JUNCTION      0.00   454.06     0  02:09           0        5.09       0.516
  WS02004409           JUNCTION      0.00   453.88     0  02:10           0        5.06       0.162
  WS02004410           JUNCTION      0.00   452.95     0  02:10           0        5.05       0.200
  WS02004411           JUNCTION      0.00   452.13     0  02:11           0        5.04       0.219
  WS02004412           JUNCTION      0.00   451.48     0  02:11           0        5.03       0.255
  WS02004413           JUNCTION      0.00   451.04     0  02:11           0        5.02       0.410
  WS02004405           JUNCTION      0.04   454.30     0  02:09     0.00107         5.1       0.318
  WS02006109           JUNCTION      1.23   447.45     0  02:07      0.0347        5.17       0.178
  WS02006110           JUNCTION      0.00   447.43     0  02:07           0        5.16       0.253
  WS02006111           JUNCTION      0.00   460.52     0  02:08           0        5.14       0.038
  WS02006112           JUNCTION     10.18   458.74     0  02:08      0.0578        5.19       0.376
  WS02006113           JUNCTION      0.00   447.47     0  02:07           0        5.14       0.080
  WS02006115           JUNCTION      0.00   456.97     0  02:07           0        5.18       0.259
  WS02006116           JUNCTION      0.00   455.65     0  02:09           0        5.16       0.210
  WS02006230           JUNCTION     10.28   334.30     0  04:13        0.29        3.41       0.213
  WS02006231           JUNCTION      0.00   325.59     0  04:12           0        3.12       0.023
  WS02006232           JUNCTION      0.00   326.55     0  04:12           0        3.12       0.244
  WS02006234           JUNCTION      0.00   328.47     0  04:12           0        3.12      -0.054
  WS02006235           JUNCTION      0.00   329.10     0  04:12           0        3.17       0.226
  WS02006238           JUNCTION      0.00   329.75     0  04:11           0        1.95      -0.131
  WS02006240           JUNCTION      0.00   333.61     0  04:11           0        1.91       0.160
  WS02006242           JUNCTION      0.00   336.68     0  04:11           0         1.9       0.230
  WS02006243           JUNCTION      0.00   340.11     0  04:11           0        1.88      -0.345
  WS02006245           JUNCTION      0.00   342.38     0  04:10           0        1.88       0.402
  WS02006247           JUNCTION      0.00   344.99     0  04:10           0        1.88       0.093
  WS02006248           JUNCTION      0.00   347.64     0  04:10           0        1.88      -0.199
  WS02006249           JUNCTION      0.00   394.07     0  04:10           0         1.9       0.360
  WS02006239           JUNCTION      0.00   330.71     0  04:12           0        1.93      -0.411
  WS02006251           JUNCTION      0.08   400.08     0  04:10     0.00217        1.92      -0.037
  WS02006252           JUNCTION      0.00   399.99     0  04:10           0        1.56       0.008
  WS02006253           JUNCTION      1.44    57.92     0  02:08     0.00747       0.351       0.021
  WS02006256           JUNCTION      0.00   599.94     0  03:50           0        2.35       0.067
  WS02004138           JUNCTION      0.00   284.93     0  06:30           0        1.68      -0.009
  WS02004407           JUNCTION      0.00   453.98     0  02:10           0        5.06       0.076
  WS02006228           JUNCTION      0.00   446.22     0  02:07           0        5.14       0.177
  WS02006229           JUNCTION      0.00   446.07     0  02:07           0        5.15       0.197
  WS02006280           JUNCTION      0.00   274.19     0  02:09           0        1.75       0.004
  WS02006284           JUNCTION      0.10   274.19     0  02:09      0.0027        1.75       0.059
  WS02006287           JUNCTION      0.00   274.09     0  02:09           0        1.75       0.041
  WSF200               JUNCTION      0.00   450.71     0  02:12           0        4.99       0.037
  HS02004901           JUNCTION     12.34    12.34     0  01:36      0.0695      0.0697       2.590
  HS02004881           JUNCTION      5.34    56.62     0  02:08      0.0303       0.326       0.066
  HS02004876           JUNCTION     10.11    51.23     0  02:08      0.0584       0.296       0.183
  HS02004870           JUNCTION     10.08    41.18     0  02:08      0.0575       0.238       0.045
  HS02004862           JUNCTION      9.99    31.21     0  02:08      0.0634        0.18       0.095
  HS02004856           JUNCTION      7.58    21.26     0  02:08      0.0432       0.118       1.232
  HS02004852           JUNCTION      0.00    13.78     0  02:09           0      0.0753       0.072
  HS02004848           JUNCTION     22.44    22.44     0  02:09       0.139       0.139       0.032
  HS02004842           JUNCTION      0.00     8.71     0  02:17           0      0.0763      20.533
  HS02004837           JUNCTION     23.78    32.32     0  02:08       0.279       0.343       0.236
  HS02004830           JUNCTION      0.15    32.46     0  02:09     0.00423       0.333       0.372
  HS02004824           JUNCTION     27.40    59.85     0  02:10       0.181       0.513       0.105
  HS02004817           JUNCTION      0.60    60.44     0  02:10      0.0169       0.529       3.251
  HS02004807           JUNCTION     18.56    78.63     0  02:09       0.106       0.618       0.704
  HS02004802           JUNCTION      0.00    78.69     0  02:10           0       0.615       0.646
  HS02004799           JUNCTION     14.98   164.66     0  02:07      0.0856       0.976       0.270
  HS02004792           JUNCTION     62.86   149.73     0  02:07       0.364       0.891       0.045
  HS02004788           JUNCTION     22.43    86.95     0  02:07       0.166       0.528       0.074
  HS02004785           JUNCTION      0.15    64.59     0  02:07     0.00423       0.363       0.135
  HS02004777           JUNCTION      0.03    64.48     0  02:07    0.000846       0.364       1.447
  HS02004770           JUNCTION     52.29    64.51     0  02:06       0.297       0.365       0.854
  HS02004480           JUNCTION      0.00   195.78     0  02:07           0        1.15       0.099
  HS02004479           JUNCTION      0.00    31.20     0  02:09           0       0.188       0.391
  HS02004478           JUNCTION      0.00   274.08     0  02:08           0        1.75       0.020
  YS02001745           JUNCTION    214.32   214.32     0  02:55        2.14        2.14       0.536
  YS02001748           JUNCTION      0.04   373.90     0  02:23     0.00127        2.14       1.057
  YS02001751           JUNCTION      0.01   406.35     0  02:09     0.00031        2.11       1.054
  YS02001754           JUNCTION      0.26   223.80     0  02:52     0.00733         2.1       1.195
  YS02001762           JUNCTION      0.00   258.49     0  02:27           0        1.62       1.337
  YS02001765           JUNCTION      0.00   256.12     0  02:27           0        1.62       1.531
  YS02001767           JUNCTION      0.54   254.14     0  02:27      0.0151        1.64       2.210
  YS02001770           JUNCTION    259.81   375.86     0  03:00        2.41        2.56       1.247
  YS02001774           JUNCTION      0.00   376.50     0  03:00           0        1.06       2.421
  YS02001779           JUNCTION      0.01   376.88     0  03:00    0.000141        1.03       1.530
  YS02001882           JUNCTION      0.00    16.87     0  02:09           0      0.0157      15.312
  YS02001884           JUNCTION      0.00    21.14     0  02:09           0      0.0514      12.597
  YS02001759           JUNCTION    246.73   496.52     0  02:35        2.23        3.67       0.627
  YS02001887           JUNCTION    301.84   302.07     0  02:41        2.57         2.6       0.314
  YS02001890           JUNCTION      0.00   302.99     0  02:40           0        2.56       0.346
  YS02001898           JUNCTION      0.00   300.70     0  02:51           0        2.54       0.109
  YS02001901           JUNCTION      0.00   301.18     0  02:50           0        2.54       0.261
  YS02001904           JUNCTION      0.00   301.27     0  02:50           0        2.54       0.235
  YS02001907           JUNCTION      0.00   587.79     0  03:03           0        5.62       0.423
  YS02001910           JUNCTION      0.00   321.11     0  03:06           0         3.1       0.367
  YS02001915           JUNCTION    186.98   320.17     0  03:06         1.8         3.1       0.182
  YS02001918           JUNCTION      0.00   139.70     0  03:06           0         1.3       0.135
  YS02001619           JUNCTION    183.42   183.42     0  02:55        1.79        1.79       0.691
  YS02001629           JUNCTION      0.00   180.53     0  02:11           0        1.66       1.772
  YS02001641           JUNCTION      0.00   373.22     0  02:31           0        3.68       0.578
  YS02001644           JUNCTION    204.56  1077.53     0  02:59        2.06        8.83       0.310
  YS02001652           JUNCTION      0.00   273.10     0  02:17           0        1.87       1.257
  YS02001655           JUNCTION      0.15   330.48     0  02:12     0.00434         1.9       1.323
  YS02001920           JUNCTION      2.87   128.27     0  03:06      0.0809        1.31       0.214
  YS02001923           JUNCTION      0.04   110.04     0  03:02     0.00106        1.23       0.049
  YS02001926           JUNCTION      0.05   103.38     0  03:00     0.00147        1.23       0.254
  YS02001929           JUNCTION    100.40   100.40     0  03:01        1.23        1.23       0.039
  YS02001658           JUNCTION      0.00   621.51     0  02:17           0        1.93       1.008
  YS02001661           JUNCTION      0.00   598.70     0  02:35           0        2.25      -0.134
  YS02001664           JUNCTION    219.77   363.17     0  02:35        1.91        2.24       0.312
  YS02001622           JUNCTION      0.00   183.84     0  02:54           0        1.78       1.829
  YS02001633           JUNCTION    208.70   369.01     0  02:31        2.13        3.74       0.862
  YS02001649           JUNCTION      0.00   752.42     0  02:30           0        5.16       0.722
  YS02001757           JUNCTION      0.00  1416.44     0  02:30           0        7.69       1.216
  YS02001895           JUNCTION      0.00   301.64     0  02:43           0        2.55       0.189
  YS02001625           JUNCTION      0.00   183.57     0  02:54           0        1.74       2.292
  YS02163301           JUNCTION      0.00   190.39     0  02:15           0        1.64       1.495
  YS02163601           JUNCTION      0.11   370.47     0  02:31      0.0031         3.7       0.819
  YS02164001           JUNCTION      0.00   371.08     0  02:31           0        3.68       0.553
  YS02001647           JUNCTION      0.00   560.38     0  02:31           0        4.44       0.635
  YSB1154              JUNCTION     18.00    18.00     0  02:07       0.104       0.105       1.399
  YSB6556              JUNCTION      0.00    17.99     0  02:06           0       0.105       1.200
  YSB1174              JUNCTION     13.79    13.79     0  01:35      0.0753      0.0758       1.721
  YSB1171              JUNCTION      0.00    31.24     0  02:07           0       0.187       3.508
  YS02006553           JUNCTION      0.00   587.76     0  03:03           0        5.62       0.271
  YS02006561           JUNCTION      0.00   842.32     0  02:57           0        7.92       0.006
  YS02006556           JUNCTION      0.00   587.64     0  03:03           0        5.62       0.203
  YS02006558           JUNCTION    265.84   842.91     0  02:57        2.36        7.95       0.063
  YS02001783           JUNCTION      0.00   841.13     0  02:59           0        7.92       0.029
  YS02001784           JUNCTION      1.06   842.23     0  02:59      0.0299        7.95       0.042
  YS02001786           JUNCTION      0.06   842.26     0  02:58     0.00159        7.95       0.039
  YS02001788           JUNCTION      0.07   842.21     0  02:59       0.002        7.94       0.024
  YS02001790           JUNCTION      0.15   842.47     0  02:59     0.00437        7.95       0.114
  YS02001791           JUNCTION      0.00   842.36     0  02:59           0        7.94       0.149
  YS02001793           JUNCTION      0.00   842.62     0  02:59           0        7.93       0.203
  WS02004139           JUNCTION      0.32   283.86     0  06:30     0.00905        1.69       0.858
  WSC                  OUTFALL       0.00   562.52     0  02:15           0        7.29       0.000
  3                    OUTFALL       0.00   464.00     0  03:50           0         1.1       0.000
  4                    OUTFALL       0.00    45.55     0  04:10           0      0.0101       0.000
  5                    OUTFALL       0.00     0.00     0  00:00           0           0       0.000 ltr
  JK-storage           STORAGE       0.00   842.51     0  02:57           0        8.07       0.211
  CC-storage           STORAGE       0.00  1416.79     0  02:30           0        5.57       1.178
  XR-storage           STORAGE     549.18   549.18     0  02:55        9.26        9.86       0.000
  
  
  **********************
  Node Surcharge Summary
  **********************
  
  Surcharging occurs when water rises above the top of the highest conduit.
  ---------------------------------------------------------------------
                                               Max. Height   Min. Depth
                                   Hours       Above Crown    Below Rim
  Node                 Type      Surcharged         Meters       Meters
  ---------------------------------------------------------------------
  WS02006109           JUNCTION        0.26          0.050        1.770
  WS02006252           JUNCTION        0.19          0.188        0.912
  WS02006228           JUNCTION        0.25          0.057        2.143
  YS02001748           JUNCTION        5.37          0.254        0.936
  YS02001751           JUNCTION        5.60          0.541        0.659
  YS02001754           JUNCTION        5.78          0.769        0.381
  YS02001762           JUNCTION        5.96          1.031        0.119
  YS02001765           JUNCTION        5.94          0.981        0.119
  YS02001767           JUNCTION        5.92          0.935        0.095
  YS02001770           JUNCTION        5.91          0.884        0.036
  YS02001774           JUNCTION        5.95          0.976        0.074
  YS02001779           JUNCTION        5.75          0.680        0.000
  YS02001882           JUNCTION        0.48          0.182        0.648
  YS02001884           JUNCTION        0.55          0.221        0.649
  YS02001759           JUNCTION        5.98          1.071        0.139
  YS02001887           JUNCTION        0.71          0.315        0.635
  YS02001890           JUNCTION        0.76          0.344        0.416
  YS02001898           JUNCTION        0.36          0.116        0.624
  YS02001901           JUNCTION        0.65          0.276        0.594
  YS02001904           JUNCTION        0.61          0.243        0.607
  YS02001907           JUNCTION        1.45          0.577        0.373
  YS02001910           JUNCTION        0.83          0.374        0.726
  YS02001915           JUNCTION        0.45          0.159        0.841
  YS02001619           JUNCTION        5.58          0.473        0.137
  YS02001629           JUNCTION        5.59          0.464        0.006
  YS02001641           JUNCTION        5.95          0.934        0.166
  YS02001644           JUNCTION        5.95          0.920        0.000
  YS02001652           JUNCTION        5.84          1.045        0.085
  YS02001655           JUNCTION        5.61          1.153        0.047
  YS02001658           JUNCTION        5.41          1.300        0.000
  YS02001661           JUNCTION        0.18          0.840        0.550
  YS02001622           JUNCTION        5.63          0.495        0.125
  YS02001633           JUNCTION        5.93          0.923        0.137
  YS02001649           JUNCTION        5.97          1.050        0.000
  YS02001757           JUNCTION        6.04          1.175        0.035
  YS02001895           JUNCTION        0.41          0.140        0.610
  YS02001625           JUNCTION        5.88          0.780        0.000
  YS02163301           JUNCTION        5.92          0.881        0.149
  YS02163601           JUNCTION        5.97          0.988        0.092
  YS02164001           JUNCTION        5.94          0.919        0.181
  YS02001647           JUNCTION        5.86          0.802        0.098
  YS02006553           JUNCTION        1.54          0.581        0.609
  YS02006556           JUNCTION        1.12          0.493        0.857
  YS02006558           JUNCTION        1.07          0.473        0.927
  YS02001783           JUNCTION        1.41          0.430        1.170
  YS02001784           JUNCTION        1.50          0.407        1.083
  YS02001786           JUNCTION        1.42          0.298        1.132
  YS02001788           JUNCTION        1.39          0.211        1.269
  YS02001790           JUNCTION        4.14          0.415        0.742
  YS02001791           JUNCTION        4.32          0.795        1.125
  YS02001793           JUNCTION        4.49          0.799        1.801
  
  
  *********************
  Node Flooding Summary
  *********************
  
  Flooding refers to all water that overflows a node, whether it ponds or not.
  --------------------------------------------------------------------------
                                                             Total   Maximum
                                 Maximum   Time of Max       Flood    Ponded
                        Hours       Rate    Occurrence      Volume     Depth
  Node                 Flooded       LPS   days hr:min    10^6 ltr    Meters
  --------------------------------------------------------------------------
  YS02001779              2.39    376.80      0  03:00       1.006     0.000
  YS02001644              5.17   1077.51      0  02:59       7.468     0.000
  YS02001658              0.01    263.38      0  02:17       0.000     0.000
  YS02001649              0.05     40.18      0  02:35       0.002     0.000
  YS02001625              0.66     36.32      0  02:55       0.053     0.000
  JK-storage              3.53    841.61      0  03:00       5.433     0.000
  XR-storage              7.14    529.33      0  02:40       7.256     0.000
  
  
  **********************
  Storage Volume Summary
  **********************
  
  --------------------------------------------------------------------------------------------------
                         Average     Avg  Evap Exfil       Maximum     Max    Time of Max    Maximum
                          Volume    Pcnt  Pcnt  Pcnt        Volume    Pcnt     Occurrence    Outflow
  Storage Unit           1000 m3    Full  Loss  Loss       1000 m3    Full    days hr:min        LPS
  --------------------------------------------------------------------------------------------------
  JK-storage               0.248      85     0     0         0.291     100       0  02:01     599.94
  CC-storage               3.154      20     0     0         3.883      25       0  02:56     399.99
  XR-storage               0.923     100     0     0         0.926     100       0  00:39     284.93
  
  
  ***********************
  Outfall Loading Summary
  ***********************
  
  -----------------------------------------------------------
                         Flow       Avg       Max       Total
                         Freq      Flow      Flow      Volume
  Outfall Node           Pcnt       LPS       LPS    10^6 ltr
  -----------------------------------------------------------
  WSC                  100.00    293.64    562.52       7.293
  3                     43.53    155.72    464.00       1.097
  4                      2.61     15.89     45.55       0.010
  5                      0.00      0.00      0.00       0.000
  -----------------------------------------------------------
  System                36.53    465.24    843.21       8.400
  
  
  ********************
  Link Flow Summary
  ********************
  
  -----------------------------------------------------------------------------
                                 Maximum  Time of Max   Maximum    Max/    Max/
                                  |Flow|   Occurrence   |Veloc|    Full    Full
  Link                 Type          LPS  days hr:min     m/sec    Flow   Depth
  -----------------------------------------------------------------------------
  WS02003066WSF200     CONDUIT    450.71     0  02:12      2.68    0.08    0.21
  WS02006287WS02006284 CONDUIT    274.10     0  02:09      1.78    0.13    0.25
  WS02006284WS02006280 CONDUIT    274.19     0  02:09      2.02    0.11    0.23
  WS02006280WS02006229 CONDUIT    274.19     0  02:09      3.26    0.06    0.16
  WS02006229WS02006228 CONDUIT    446.22     0  02:07      0.89    1.48    1.00
  WS02006256WS02006235 CONDUIT    149.94     0  00:55      2.14    1.59    1.00
  WS02006253WS02006251 CONDUIT     57.91     0  02:08      0.55    0.17    0.86
  WS02006252WS02006251 CONDUIT    400.00     0  04:10      3.18    1.47    1.00
  WS02006251WS02006249 CONDUIT    394.07     0  04:10      1.16    1.14    0.83
  WS02006249WS02006248 CONDUIT    347.64     0  04:10      1.11    1.90    0.77
  WS02006248WS02006247 CONDUIT    344.99     0  04:10      1.08    0.75    0.79
  WS02006247WS02006245 CONDUIT    342.38     0  04:10      1.05    2.71    0.80
  WS02006245WS02006243 CONDUIT    340.11     0  04:11      1.07    1.01    0.79
  WS02006243WS02006242 CONDUIT    336.68     0  04:11      0.97    0.72    0.85
  WS02006242WS02006240 CONDUIT    333.61     0  04:11      0.93    1.32    0.88
  WS02006240WS02006239 CONDUIT    330.71     0  04:12      0.98    1.04    0.83
  WS02006239WS02006238 CONDUIT    329.75     0  04:11      0.92    1.06    0.89
  WS02006238WS02006235 CONDUIT    329.10     0  04:12      0.91    0.73    0.89
  WS02006235WS02006234 CONDUIT    328.47     0  04:12      1.04    3.47    0.82
  WS02006234WS02006232 CONDUIT    326.55     0  04:12      0.91    0.66    0.88
  WS02006232WS02006231 CONDUIT    325.59     0  04:12      0.96    0.68    0.82
  WS02006231WS02006230 CONDUIT    324.02     0  04:13      1.30    4.92    0.67
  WS02006230WS02006229 CONDUIT    332.82     0  04:13      0.86    7.41    1.00
  WS02006228WS02006109 CONDUIT    446.22     0  02:07      0.89    1.95    1.00
  WS02006116WS02004401 CONDUIT    454.93     0  02:09      0.75    0.63    0.77
  WS02006115WS02006116 CONDUIT    455.65     0  02:09      0.93    0.58    0.69
  WS02006113WS02006111 CONDUIT    460.52     0  02:08      2.31    0.55    0.42
  WS02006112WS02006115 CONDUIT    456.97     0  02:07      0.67    0.27    0.82
  WS02006111WS02006112 CONDUIT    448.65     0  02:08      1.28    0.21    0.66
  WS02006110WS02006113 CONDUIT    447.47     0  02:07      1.10    0.41    0.76
  WS02006109WS02006110 CONDUIT    447.43     0  02:07      0.90    0.86    0.96
  WS02004411WS02004412 CONDUIT    451.48     0  02:11      0.85    0.64    0.64
  WS02004401WS02004402 CONDUIT    454.56     0  02:09      0.77    0.55    0.80
  WS02004413WS02003067 CONDUIT    450.65     0  02:12      1.01    0.19    0.55
  WS02004412WS02004413 CONDUIT    451.04     0  02:11      0.74    0.30    0.73
  WS02004410WS02004411 CONDUIT    452.13     0  02:11      0.87    0.62    0.63
  WS02004409WS02004410 CONDUIT    452.95     0  02:10      0.90    0.59    0.61
  WS02004407WS02004409 CONDUIT    453.88     0  02:10      1.38    0.16    0.44
  WS02004406WS02004407 CONDUIT    453.98     0  02:10      0.94    0.20    0.59
  WS02004405WS02004406 CONDUIT    454.06     0  02:09      0.61    0.90    0.91
  WS02004404WS02004405 CONDUIT    454.26     0  02:09      0.61    4.45    0.91
  WS02004403WS02004404 CONDUIT    454.19     0  02:09      0.73    0.33    0.87
  WS02004402WS02004403 CONDUIT    454.15     0  02:09      0.84    0.65    0.82
  WS02004139WS02001211 CONDUIT    270.06     0  06:30      0.53    0.34    0.49
  WS02004138WS02004139 CONDUIT    283.54     0  06:30      2.39    0.06    0.36
  WS02003067WS02003066 CONDUIT    450.73     0  02:12      1.09    0.14    0.39
  WS02001213WS02003059 CONDUIT    259.72     0  06:32      0.50    0.43    0.63
  WS02001212WS02001213 CONDUIT    264.66     0  06:31      1.15    0.41    0.34
  WS02001211WS02001212 CONDUIT    267.01     0  06:31      0.64    0.20    0.53
  WS02003072WS02003073 CONDUIT    561.16     0  02:14      1.44    1.21    0.38
  WS02003069WS02003072 CONDUIT    561.40     0  02:14      1.38    0.27    0.39
  WS02003060WS02003069 CONDUIT    561.40     0  02:13      1.65    0.22    0.34
  WS02003059WS02003060 CONDUIT    252.80     0  06:33      0.61    0.17    0.52
  HS02004901HS02004770 CONDUIT     12.22     0  02:07      0.05    0.05    0.35
  HS02004876HS02004881 CONDUIT     51.32     0  02:08      0.76    0.55    0.10
  HS02004870HS02004876 CONDUIT     41.17     0  02:09      0.52    0.03    0.11
  HS02004842HS02004848 CONDUIT      8.71     0  02:17      0.04    0.01    0.29
  HS02004837HS02004842 CONDUIT      8.85     0  02:14      0.42    0.01    0.30
  HS02004830HS02004837 CONDUIT     32.31     0  02:09      0.50    0.03    0.09
  HS02004824HS02004830 CONDUIT     32.45     0  02:09      0.53    0.04    0.09
  HS02004817HS02004824 CONDUIT     59.84     0  02:10      0.20    0.03    0.43
  HS02004770HS02004777 CONDUIT     64.45     0  02:07      0.26    0.12    0.36
  HS02004799HS02004480 CONDUIT    164.63     0  02:07      0.67    0.21    0.35
  HS02004792HS02004799 CONDUIT    149.69     0  02:07      0.76    0.09    0.28
  HS02004788HS02004792 CONDUIT     86.94     0  02:08      0.90    0.06    0.14
  HS02004785HS02004788 CONDUIT     64.57     0  02:08      0.57    0.49    0.16
  HS02004777HS02004785 CONDUIT     64.44     0  02:07      0.31    0.08    0.29
  HS02004480HS02004478 CONDUIT    195.75     0  02:08      1.06    0.82    0.26
  HS02004479HS02004480 CONDUIT     31.31     0  02:10      0.28    0.03    0.34
  HS02004862HS02004870 CONDUIT     31.19     0  02:09      0.56    0.03    0.08
  HS02004848HS02004852 CONDUIT     13.78     0  02:09      0.38    0.02    0.05
  HS02004856HS02004862 CONDUIT     21.24     0  02:09      0.41    0.02    0.07
  HS02004852HS02004856 CONDUIT     13.76     0  02:10      0.18    0.02    0.11
  HS02004802HS02004478 CONDUIT     78.89     0  02:11      0.38    0.07    0.29
  HS02004478WS02006287 CONDUIT    274.09     0  02:09      1.48    0.08    0.21
  HS02004817HS02004807 CONDUIT     60.62     0  02:11      0.15    0.04    0.56
  HS02004807HS02004802 CONDUIT     78.69     0  02:10      0.32    0.15    0.35
  YS02001759YS02001757 CONDUIT    497.43     0  02:27      0.63    0.35    1.00
  YS02001762YS02001759 CONDUIT    261.98     0  02:24      0.33    0.30    1.00
  YS02001765YS02001762 CONDUIT    258.49     0  02:27      0.33    0.24    1.00
  YS02001770YS02001767 CONDUIT    253.61     0  02:27      0.38    1.00    1.00
  YS02001774YS02001770 CONDUIT    376.50     0  03:00      0.48    0.24    1.00
  YS02001779YS02001774 CONDUIT    376.88     0  03:00      0.48    0.19    1.00
  YS02001649YS02001757 CONDUIT    752.73     0  02:30      0.96    0.46    1.00
  YS02001767YS02001765 CONDUIT    256.12     0  02:27      0.35    0.32    1.00
  YS02006561YS02001783 CONDUIT    841.13     0  02:59      2.00    0.44    1.00
  YS02001783YS02001784 CONDUIT    841.17     0  02:59      1.67    1.16    1.00
  YS02001784YS02001785 CONDUIT    842.21     0  02:58      1.68    1.96    1.00
  YS02001788YS02001790 CONDUIT    842.32     0  02:59      2.03    0.62    1.00
  YS02001790YS02001791 CONDUIT    842.36     0  02:59      2.38    0.92    1.00
  YS02001791YS02001793 CONDUIT    842.62     0  02:59      4.61    0.36    1.00
  YS02001910YS02001907 CONDUIT    321.09     0  03:06      0.50    0.18    1.00
  YS02001786YS02001788 CONDUIT    842.14     0  02:59      2.02    1.62    1.00
  YS02001915YS02001910 CONDUIT    321.11     0  03:06      0.56    0.16    1.00
  YS02001918YS02001915 CONDUIT    149.42     0  03:06      0.44    0.08    0.91
  YS02001923YS02001920 CONDUIT    125.40     0  03:06      0.66    0.06    0.74
  YS02001926YS02001923 CONDUIT    110.01     0  03:02      0.76    0.16    0.42
  YS02001929YS02001926 CONDUIT    103.33     0  03:00      0.81    0.05    0.30
  YS02001920YS02001918 CONDUIT    139.70     0  03:06      0.65    0.14    0.84
  YS02001629YS02163301 CONDUIT    190.39     0  02:15      0.24    0.23    1.00
  YS02001619YS02001622 CONDUIT    183.84     0  02:54      0.67    0.27    1.00
  YS02001622YS02001625 CONDUIT    183.57     0  02:54      0.32    0.10    1.00
  YS02001625YS02001629 CONDUIT    180.53     0  02:11      0.27    0.09    1.00
  YS02163301YS02001633 CONDUIT    191.94     0  02:19      0.24    0.18    1.00
  YS02163601YS02164001 CONDUIT    371.08     0  02:31      0.47    0.33    1.00
  YS02164001YS02001641 CONDUIT    373.22     0  02:31      0.48    0.51    1.00
  YS02001641YS02001644 CONDUIT    374.28     0  02:31      0.48    1.21    1.00
  YS02001647YS02001649 CONDUIT    560.85     0  02:31      0.71    0.30    1.00
  YS02006553YS02006556 CONDUIT    587.64     0  03:03      0.75    0.50    1.00
  YS02006556YS02006558 CONDUIT    587.73     0  03:03      0.75    0.46    1.00
  YSB6556YSB1171       CONDUIT     18.03     0  02:09      0.07    0.02    0.61
  YS02001907YS02006553 CONDUIT    587.76     0  03:03      0.65    0.69    1.00
  YS02006558YS02006561 CONDUIT    842.32     0  02:57      3.17    1.86    1.00
  YS02001633YS02163601 CONDUIT    370.36     0  02:31      0.47    0.39    1.00
  YS02001644YS02001647 CONDUIT    560.38     0  02:31      0.71    0.33    1.00
  YS02001745YS02001748 CONDUIT    373.85     0  02:23      1.53    0.14    0.94
  YS02001748YS02001751 CONDUIT    406.34     0  02:09      1.14    0.21    1.00
  YS02001751YS02001754 CONDUIT    223.54     0  02:52      0.97    0.11    1.00
  YS02001754YS02001757 CONDUIT    223.99     0  02:52      0.33    0.09    1.00
  YS02001882YS02001884 CONDUIT     16.87     0  02:09      0.12    0.02    1.00
  YS02001884YS02001887 CONDUIT     21.14     0  02:09      0.09    0.03    1.00
  YS02001890YS02001895 CONDUIT    301.64     0  02:43      0.45    0.14    1.00
  YS02001895YS02001898 CONDUIT    300.70     0  02:51      0.58    0.52    1.00
  YS02001898YS02001901 CONDUIT    301.18     0  02:50      0.49    0.19    1.00
  YS02001901YS02001904 CONDUIT    301.27     0  02:50      0.45    0.47    1.00
  YS02001904YS02001907 CONDUIT    301.34     0  02:51      0.38    0.11    1.00
  YS02001887YS02001890 CONDUIT    302.99     0  02:40      0.40    0.52    1.00
  YS02001652YS02001649 CONDUIT    272.87     0  02:17      0.58    0.14    1.00
  YS02001655YS02001652 CONDUIT    273.10     0  02:17      1.05    0.13    1.00
  YS02001658YS02001655 CONDUIT    330.32     0  02:12      1.31    0.14    1.00
  YS02001661YS02001658 CONDUIT    621.51     0  02:17      1.61    0.24    1.00
  YS02001664YS02001661 CONDUIT    598.70     0  02:35      1.49    0.19    0.73
  YSB1154YSB6556       CONDUIT     17.99     0  02:06      0.16    0.03    0.50
  YSB1174YSB1171       CONDUIT     13.76     0  01:36      0.06    0.02    0.62
  YSB1171HS02004479    CONDUIT     31.20     0  02:09      0.54    0.02    0.48
  HS02004881HS02006253 CONDUIT     56.62     0  02:08      1.92    0.01    0.20
  YS02001793JiankangQianchi CONDUIT    842.51     0  02:57      3.30    0.07    1.00
  YS02001757CaochengTiaoxuchi CONDUIT   1416.79     0  02:30      1.96    0.62    1.00
  WSF200WS02003060     CONDUIT    450.84     0  02:12      1.84    0.10    0.27
  1                    CONDUIT    562.52     0  02:15      2.84    0.20    0.30
  2                    CONDUIT     45.55     0  04:10      3.87    0.11    0.22
  3                    CONDUIT    464.00     0  03:50      9.67    0.74    0.64
  4                    CONDUIT      0.00     0  00:00      0.00    0.00    0.00
  CC-Pump-1            PUMP       199.99     0  04:10              1.00
  CC-Pump-2            PUMP       200.00     0  03:00              1.00
  JK-Pump-1            PUMP       300.00     0  05:10              1.00
  JK-Pump-2            PUMP       300.00     0  03:40              1.00
  XR-Pump-1            PUMP        95.00     0  02:00              1.00
  XR-Pump-2            PUMP        95.00     0  03:00              1.00
  XR-Pump-3            PUMP        94.98     0  06:30              1.00
  XR-Pump-4            PUMP        95.00     0  00:00              1.00
  
  
  ***************************
  Flow Classification Summary
  ***************************
  
  -------------------------------------------------------------------------------------
                      Adjusted    ---------- Fraction of Time in Flow Class ---------- 
                       /Actual         Up    Down  Sub   Sup   Up    Down  Norm  Inlet 
  Conduit               Length    Dry  Dry   Dry   Crit  Crit  Crit  Crit  Ltd   Ctrl  
  -------------------------------------------------------------------------------------
  WS02003066WSF200        1.00   0.08  0.00  0.00  0.00  0.92  0.00  0.00  0.79  0.00
  WS02006287WS02006284    1.00   0.03  0.04  0.00  0.58  0.35  0.00  0.00  0.68  0.00
  WS02006284WS02006280    1.00   0.06  0.00  0.00  0.00  0.00  0.00  0.94  0.00  0.00
  WS02006280WS02006229    1.00   0.06  0.00  0.00  0.00  0.00  0.00  0.94  0.00  0.00
  WS02006229WS02006228    1.00   0.00  0.00  0.00  1.00  0.00  0.00  0.00  0.00  0.00
  WS02006256WS02006235    1.00   0.03  0.00  0.00  0.97  0.00  0.00  0.00  0.00  0.00
  WS02006253WS02006251    1.00   0.01  0.02  0.00  0.95  0.00  0.02  0.00  0.00  0.00
  WS02006252WS02006251    1.00   0.09  0.00  0.00  0.00  0.00  0.91  0.00  0.00  0.00
  WS02006251WS02006249    1.00   0.00  0.00  0.00  1.00  0.00  0.00  0.00  0.40  0.00
  WS02006249WS02006248    1.00   0.00  0.00  0.00  0.70  0.00  0.29  0.00  0.00  0.00
  WS02006248WS02006247    1.00   0.00  0.00  0.00  0.98  0.00  0.00  0.02  0.33  0.00
  WS02006247WS02006245    1.00   0.01  0.00  0.00  0.94  0.00  0.00  0.05  0.00  0.00
  WS02006245WS02006243    1.00   0.01  0.00  0.00  0.92  0.00  0.00  0.07  0.04  0.00
  WS02006243WS02006242    1.00   0.01  0.00  0.00  0.96  0.00  0.00  0.03  0.30  0.00
  WS02006242WS02006240    1.00   0.01  0.02  0.00  0.96  0.00  0.02  0.00  0.00  0.00
  WS02006240WS02006239    1.00   0.03  0.00  0.00  0.91  0.00  0.00  0.06  0.03  0.00
  WS02006239WS02006238    1.00   0.03  0.00  0.00  0.97  0.00  0.00  0.00  0.01  0.00
  WS02006238WS02006235    1.00   0.03  0.00  0.00  0.97  0.00  0.00  0.00  0.00  0.00
  WS02006235WS02006234    1.00   0.03  0.00  0.00  0.95  0.00  0.03  0.00  0.00  0.00
  WS02006234WS02006232    1.00   0.03  0.00  0.00  0.97  0.00  0.00  0.00  0.00  0.00
  WS02006232WS02006231    1.00   0.03  0.00  0.00  0.97  0.00  0.00  0.00  0.00  0.00
  WS02006231WS02006230    1.00   0.03  0.00  0.00  0.28  0.00  0.70  0.00  0.00  0.00
  WS02006230WS02006229    1.00   0.00  0.00  0.00  0.99  0.00  0.00  0.01  0.00  0.00
  WS02006228WS02006109    1.00   0.00  0.00  0.00  1.00  0.00  0.00  0.00  0.01  0.00
  WS02006116WS02004401    1.00   0.03  0.00  0.00  0.97  0.00  0.00  0.00  0.00  0.00
  WS02006115WS02006116    1.00   0.03  0.00  0.00  0.94  0.00  0.00  0.03  0.00  0.00
  WS02006113WS02006111    1.00   0.02  0.00  0.00  0.01  0.98  0.00  0.00  0.23  0.00
  WS02006112WS02006115    1.00   0.02  0.01  0.00  0.97  0.00  0.00  0.00  0.00  0.00
  WS02006111WS02006112    1.00   0.02  0.00  0.00  0.98  0.00  0.00  0.00  0.92  0.00
  WS02006110WS02006113    1.00   0.00  0.01  0.00  0.98  0.00  0.00  0.00  0.00  0.00
  WS02006109WS02006110    1.00   0.00  0.00  0.00  0.99  0.00  0.00  0.00  0.00  0.00
  WS02004411WS02004412    1.00   0.07  0.00  0.00  0.93  0.00  0.00  0.00  0.00  0.00
  WS02004401WS02004402    1.00   0.03  0.00  0.00  0.97  0.00  0.00  0.00  0.00  0.00
  WS02004413WS02003067    1.00   0.07  0.01  0.00  0.00  0.00  0.92  0.00  0.00  0.00
  WS02004412WS02004413    1.00   0.07  0.00  0.00  0.93  0.00  0.00  0.00  0.01  0.00
  WS02004410WS02004411    1.00   0.07  0.00  0.00  0.93  0.00  0.00  0.00  0.00  0.00
  WS02004409WS02004410    1.00   0.07  0.00  0.00  0.93  0.00  0.00  0.00  0.00  0.00
  WS02004407WS02004409    1.00   0.07  0.00  0.00  0.93  0.00  0.00  0.00  0.84  0.00
  WS02004406WS02004407    1.00   0.00  0.06  0.00  0.93  0.00  0.00  0.00  0.00  0.00
  WS02004405WS02004406    1.00   0.00  0.00  0.00  1.00  0.00  0.00  0.00  0.04  0.00
  WS02004404WS02004405    1.00   0.00  0.00  0.00  1.00  0.00  0.00  0.00  0.00  0.00
  WS02004403WS02004404    1.00   0.00  0.03  0.00  0.97  0.00  0.00  0.00  0.02  0.00
  WS02004402WS02004403    1.00   0.03  0.00  0.00  0.97  0.00  0.00  0.00  0.00  0.00
  WS02004139WS02001211    1.00   0.00  0.00  0.00  1.00  0.00  0.00  0.00  0.00  0.00
  WS02004138WS02004139    1.00   0.00  0.02  0.00  0.98  0.00  0.00  0.00  1.00  0.00
  WS02003067WS02003066    1.00   0.08  0.01  0.00  0.92  0.00  0.00  0.00  0.00  0.00
  WS02001213WS02003059    1.00   0.00  0.00  0.00  1.00  0.00  0.00  0.00  0.00  0.00
  WS02001212WS02001213    1.00   0.00  0.00  0.00  0.47  0.00  0.53  0.00  0.00  0.00
  WS02001211WS02001212    1.00   0.00  0.00  0.00  1.00  0.00  0.00  0.00  0.00  0.00
  WS02003072WS02003073    1.00   0.00  0.00  0.00  0.00  0.00  0.00  1.00  0.00  0.00
  WS02003069WS02003072    1.00   0.00  0.00  0.00  1.00  0.00  0.00  0.00  0.73  0.00
  WS02003060WS02003069    1.00   0.00  0.00  0.00  0.98  0.02  0.00  0.00  0.46  0.00
  WS02003059WS02003060    1.00   0.00  0.00  0.00  1.00  0.00  0.00  0.00  0.02  0.00
  HS02004901HS02004770    1.00   0.05  0.00  0.00  0.95  0.00  0.00  0.00  0.00  0.00
  HS02004876HS02004881    1.00   0.00  0.00  0.00  1.00  0.00  0.00  0.00  0.00  0.00
  HS02004870HS02004876    1.00   0.00  0.00  0.00  1.00  0.00  0.00  0.00  0.95  0.00
  HS02004842HS02004848    1.00   0.00  0.05  0.00  0.95  0.00  0.00  0.00  0.58  0.00
  HS02004837HS02004842    1.00   0.00  0.00  0.00  1.00  0.00  0.00  0.00  0.11  0.00
  HS02004830HS02004837    1.00   0.00  0.00  0.00  1.00  0.00  0.00  0.00  0.99  0.00
  HS02004824HS02004830    1.00   0.00  0.00  0.00  1.00  0.00  0.00  0.00  0.00  0.00
  HS02004817HS02004824    1.00   0.00  0.00  0.00  1.00  0.00  0.00  0.00  1.00  0.00
  HS02004770HS02004777    1.00   0.00  0.05  0.00  0.95  0.00  0.00  0.00  0.03  0.00
  HS02004799HS02004480    1.00   0.00  0.01  0.00  0.93  0.00  0.06  0.00  0.00  0.00
  HS02004792HS02004799    1.00   0.00  0.00  0.00  1.00  0.00  0.00  0.00  0.98  0.00
  HS02004788HS02004792    1.00   0.00  0.00  0.00  1.00  0.00  0.00  0.00  0.98  0.00
  HS02004785HS02004788    1.00   0.00  0.00  0.00  1.00  0.00  0.00  0.00  0.00  0.00
  HS02004777HS02004785    1.00   0.00  0.00  0.00  1.00  0.00  0.00  0.00  0.12  0.00
  HS02004480HS02004478    1.00   0.05  0.00  0.00  0.66  0.00  0.00  0.29  0.00  0.00
  HS02004479HS02004480    1.00   0.01  0.00  0.00  0.99  0.00  0.00  0.00  0.12  0.00
  HS02004862HS02004870    1.00   0.00  0.00  0.00  1.00  0.00  0.00  0.00  0.04  0.00
  HS02004848HS02004852    1.00   0.05  0.00  0.00  0.95  0.00  0.00  0.00  0.76  0.00
  HS02004856HS02004862    1.00   0.00  0.07  0.00  0.93  0.00  0.00  0.00  0.83  0.00
  HS02004852HS02004856    1.00   0.05  0.01  0.00  0.94  0.00  0.00  0.00  0.86  0.00
  HS02004802HS02004478    1.00   0.05  0.01  0.00  0.94  0.00  0.00  0.00  0.03  0.00
  HS02004478WS02006287    1.00   0.07  0.00  0.00  0.74  0.20  0.00  0.00  0.65  0.00
  HS02004817HS02004807    1.00   0.00  0.05  0.00  0.95  0.00  0.00  0.00  0.01  0.00
  HS02004807HS02004802    1.00   0.05  0.00  0.00  0.94  0.00  0.00  0.02  0.00  0.00
  YS02001759YS02001757    1.00   0.00  0.00  0.00  1.00  0.00  0.00  0.00  0.16  0.00
  YS02001762YS02001759    1.00   0.00  0.00  0.00  1.00  0.00  0.00  0.00  0.03  0.00
  YS02001765YS02001762    1.00   0.00  0.00  0.00  1.00  0.00  0.00  0.00  0.14  0.00
  YS02001770YS02001767    1.00   0.00  0.00  0.00  1.00  0.00  0.00  0.00  0.00  0.00
  YS02001774YS02001770    1.00   0.00  0.06  0.00  0.94  0.00  0.00  0.00  0.03  0.00
  YS02001779YS02001774    1.00   0.00  0.00  0.00  1.00  0.00  0.00  0.00  0.18  0.00
  YS02001649YS02001757    1.00   0.00  0.00  0.00  1.00  0.00  0.00  0.00  0.16  0.00
  YS02001767YS02001765    1.00   0.00  0.00  0.00  1.00  0.00  0.00  0.00  0.00  0.00
  YS02006561YS02001783    1.00   0.07  0.00  0.00  0.64  0.28  0.00  0.00  0.59  0.00
  YS02001783YS02001784    1.00   0.00  0.07  0.00  0.93  0.00  0.00  0.00  0.00  0.00
  YS02001784YS02001785    1.00   0.00  0.00  0.00  1.00  0.00  0.00  0.00  0.17  0.00
  YS02001788YS02001790    1.00   0.00  0.00  0.00  0.78  0.22  0.00  0.00  0.39  0.00
  YS02001790YS02001791    1.00   0.00  0.00  0.00  0.71  0.29  0.00  0.00  0.22  0.00
  YS02001791YS02001793    1.00   0.00  0.00  0.00  0.76  0.24  0.00  0.00  0.06  0.00
  YS02001910YS02001907    1.00   0.00  0.00  0.00  0.99  0.00  0.00  0.01  0.12  0.00
  YS02001786YS02001788    1.00   0.00  0.00  0.00  0.77  0.23  0.00  0.00  0.00  0.00
  YS02001915YS02001910    1.00   0.00  0.00  0.00  0.98  0.02  0.00  0.00  0.16  0.00
  YS02001918YS02001915    1.00   0.00  0.00  0.00  0.99  0.00  0.00  0.00  0.59  0.00
  YS02001923YS02001920    1.00   0.00  0.00  0.00  1.00  0.00  0.00  0.00  0.87  0.00
  YS02001926YS02001923    1.00   0.00  0.02  0.00  0.10  0.00  0.88  0.00  0.00  0.00
  YS02001929YS02001926    1.00   0.00  0.05  0.00  0.95  0.00  0.00  0.00  0.85  0.00
  YS02001920YS02001918    1.00   0.00  0.00  0.00  1.00  0.00  0.00  0.00  0.00  0.00
  YS02001629YS02163301    1.00   0.07  0.00  0.00  0.93  0.00  0.00  0.00  0.00  0.00
  YS02001619YS02001622    1.00   0.05  0.00  0.00  0.95  0.00  0.00  0.00  0.00  0.00
  YS02001622YS02001625    1.00   0.05  0.00  0.00  0.95  0.00  0.00  0.00  0.04  0.00
  YS02001625YS02001629    1.00   0.05  0.02  0.00  0.91  0.00  0.01  0.00  0.00  0.00
  YS02163301YS02001633    1.00   0.00  0.07  0.00  0.93  0.00  0.00  0.00  0.00  0.00
  YS02163601YS02164001    1.00   0.00  0.02  0.00  0.98  0.00  0.00  0.00  0.00  0.00
  YS02164001YS02001641    1.00   0.00  0.02  0.00  0.98  0.00  0.00  0.00  0.06  0.00
  YS02001641YS02001644    1.00   0.00  0.00  0.00  1.00  0.00  0.00  0.00  0.00  0.00
  YS02001647YS02001649    1.00   0.00  0.07  0.00  0.93  0.00  0.00  0.00  0.01  0.00
  YS02006553YS02006556    1.00   0.00  0.00  0.00  1.00  0.00  0.00  0.00  0.03  0.00
  YS02006556YS02006558    1.00   0.00  0.00  0.00  1.00  0.00  0.00  0.00  0.00  0.00
  YSB6556YSB1171          1.00   0.01  0.03  0.00  0.96  0.00  0.00  0.00  0.00  0.00
  YS02001907YS02006553    1.00   0.00  0.01  0.00  0.99  0.00  0.00  0.00  0.00  0.00
  YS02006558YS02006561    1.00   0.07  0.00  0.00  0.14  0.78  0.00  0.00  0.52  0.00
  YS02001633YS02163601    1.00   0.00  0.00  0.00  1.00  0.00  0.00  0.00  0.15  0.00
  YS02001644YS02001647    1.00   0.00  0.07  0.00  0.93  0.00  0.00  0.00  0.00  0.00
  YS02001745YS02001748    1.00   0.00  0.00  0.00  0.89  0.00  0.00  0.10  0.03  0.00
  YS02001748YS02001751    1.00   0.00  0.00  0.00  0.97  0.03  0.00  0.00  0.14  0.00
  YS02001751YS02001754    1.00   0.00  0.00  0.00  0.92  0.00  0.00  0.08  0.02  0.00
  YS02001754YS02001757    1.00   0.00  0.00  0.00  1.00  0.00  0.00  0.00  0.18  0.00
  YS02001882YS02001884    1.00   0.06  0.00  0.00  0.93  0.00  0.00  0.00  0.00  0.00
  YS02001884YS02001887    1.00   0.01  0.01  0.00  0.97  0.00  0.00  0.00  0.00  0.00
  YS02001890YS02001895    1.00   0.00  0.07  0.00  0.93  0.00  0.00  0.00  0.00  0.00
  YS02001895YS02001898    1.00   0.07  0.00  0.00  0.92  0.00  0.01  0.00  0.00  0.00
  YS02001898YS02001901    1.00   0.07  0.00  0.00  0.93  0.00  0.00  0.00  0.01  0.00
  YS02001901YS02001904    1.00   0.07  0.00  0.00  0.93  0.00  0.00  0.00  0.00  0.00
  YS02001904YS02001907    1.00   0.00  0.07  0.00  0.93  0.00  0.00  0.00  0.00  0.00
  YS02001887YS02001890    1.00   0.00  0.00  0.00  0.99  0.00  0.01  0.00  0.00  0.00
  YS02001652YS02001649    1.00   0.00  0.00  0.00  1.00  0.00  0.00  0.00  0.16  0.00
  YS02001655YS02001652    1.00   0.00  0.00  0.00  0.92  0.00  0.00  0.08  0.02  0.00
  YS02001658YS02001655    1.00   0.00  0.06  0.00  0.91  0.03  0.00  0.00  0.04  0.00
  YS02001661YS02001658    1.00   0.06  0.00  0.00  0.89  0.04  0.00  0.00  0.03  0.00
  YS02001664YS02001661    1.00   0.05  0.00  0.00  0.89  0.07  0.00  0.00  0.18  0.00
  YSB1154YSB6556          1.00   0.04  0.00  0.00  0.96  0.00  0.00  0.00  0.02  0.00
  YSB1174YSB1171          1.00   0.01  0.01  0.00  0.98  0.00  0.00  0.00  0.00  0.00
  YSB1171HS02004479       1.00   0.01  0.00  0.00  0.99  0.00  0.00  0.00  0.10  0.00
  HS02004881HS02006253    1.00   0.01  0.00  0.00  0.32  0.03  0.00  0.63  0.21  0.00
  YS02001793JiankangQianchi    1.00   0.00  0.00  0.00  0.97  0.03  0.00  0.00  0.30  0.00
  YS02001757CaochengTiaoxuchi    1.00   0.00  0.09  0.00  0.91  0.00  0.00  0.00  0.00  0.00
  WSF200WS02003060        1.00   0.00  0.08  0.00  0.29  0.62  0.00  0.00  0.31  0.00
  1                       1.00   0.00  0.00  0.00  0.00  1.00  0.00  0.00  0.32  0.00
  2                       1.00   0.97  0.00  0.00  0.00  0.03  0.00  0.00  0.01  0.00
  3                       1.00   0.56  0.00  0.00  0.00  0.44  0.00  0.00  0.13  0.00
  4                       1.00   1.00  0.00  0.00  0.00  0.00  0.00  0.00  0.00  0.00
  
  
  *************************
  Conduit Surcharge Summary
  *************************
  
  ----------------------------------------------------------------------------
                                                           Hours        Hours 
                         --------- Hours Full --------   Above Full   Capacity
  Conduit                Both Ends  Upstream  Dnstream   Normal Flow   Limited
  ----------------------------------------------------------------------------
  WS02006229WS02006228        0.25      0.27      0.25      1.75         0.24
  WS02006256WS02006235        4.37      4.37      6.92      2.43         0.01
  WS02006252WS02006251        0.07      0.07      0.19      0.16         0.01
  WS02006251WS02006249        0.01      0.01      0.01      0.06         0.01
  WS02006249WS02006248        0.01      0.01      0.01      1.00         0.01
  WS02006247WS02006245        0.01      0.01      0.01      1.78         0.01
  WS02006245WS02006243        0.01      0.01      0.01      0.01         0.01
  WS02006242WS02006240        0.01      0.01      0.01      0.19         0.01
  WS02006240WS02006239        0.01      0.01      0.01      0.06         0.01
  WS02006239WS02006238        0.01      0.01      0.01      0.08         0.01
  WS02006235WS02006234        0.01      0.01      0.01      4.12         0.01
  WS02006231WS02006230        0.01      0.01      0.01      4.67         0.01
  WS02006230WS02006229        0.74      1.13      0.74      5.69         0.74
  WS02006228WS02006109        0.26      0.33      0.26      3.03         0.26
  WS02006111WS02006112        0.01      0.01      2.00      0.01         0.01
  WS02006110WS02006113        0.01      0.01      0.30      0.01         0.01
  WS02006109WS02006110        0.01      0.01      0.33      0.01         0.01
  WS02004404WS02004405        0.01      0.01      0.01      5.30         0.01
  WS02003072WS02003073        0.01      0.01      0.01      0.71         0.01
  YS02001759YS02001757        5.98      5.98      6.04      0.01         0.01
  YS02001762YS02001759        5.96      5.96      5.98      0.01         0.01
  YS02001765YS02001762        5.94      5.94      5.96      0.01         0.01
  YS02001770YS02001767        5.92      5.93      5.92      0.01         0.70
  YS02001774YS02001770        5.91      5.91      5.95      0.01         0.01
  YS02001779YS02001774        5.75      5.75      5.95      0.01         0.01
  YS02001649YS02001757        5.97      5.97      6.04      0.01         0.01
  YS02001767YS02001765        5.92      5.92      5.94      0.01         0.01
  YS02006561YS02001783        0.01      0.01      1.41      0.01         0.01
  YS02001783YS02001784        1.41      1.41      1.49      0.88         0.92
  YS02001784YS02001785        1.42      1.49      1.42      1.99         1.41
  YS02001788YS02001790        1.39      1.39      4.14      0.01         0.01
  YS02001790YS02001791        4.14      4.14      4.32      0.01         0.01
  YS02001791YS02001793        4.32      4.32      4.57      0.01         0.01
  YS02001910YS02001907        0.83      0.83      1.45      0.01         0.01
  YS02001786YS02001788        1.39      1.42      1.39      1.63         1.38
  YS02001915YS02001910        0.45      0.45      0.83      0.01         0.01
  YS02001918YS02001915        0.01      0.01      0.45      0.01         0.01
  YS02001629YS02163301        5.90      5.90      5.92      0.01         0.01
  YS02001619YS02001622        5.58      5.58      5.63      0.01         0.01
  YS02001622YS02001625        5.63      5.63      5.88      0.01         0.01
  YS02001625YS02001629        5.59      5.59      5.88      0.01         0.01
  YS02163301YS02001633        5.92      5.92      5.95      0.01         0.01
  YS02163601YS02164001        5.94      5.94      5.97      0.01         0.01
  YS02164001YS02001641        5.94      5.94      5.95      0.01         0.02
  YS02001641YS02001644        5.95      5.95      5.95      1.04         1.14
  YS02001647YS02001649        5.86      5.86      5.97      0.01         0.01
  YS02006553YS02006556        1.12      1.12      1.53      0.01         0.01
  YS02006556YS02006558        1.33      1.33      1.60      0.01         0.01
  YS02001907YS02006553        2.04      2.04      2.24      0.01         0.01
  YS02006558YS02006561        0.65      1.07      0.65      1.89         0.65
  YS02001633YS02163601        5.93      5.93      5.97      0.01         0.01
  YS02001644YS02001647        5.86      5.86      5.95      0.01         0.01
  YS02001745YS02001748        0.01      0.01      5.36      0.01         0.01
  YS02001748YS02001751        5.42      5.42      5.60      0.01         0.01
  YS02001751YS02001754        5.60      5.60      5.78      0.01         0.01
  YS02001754YS02001757        5.86      5.86      6.04      0.01         0.01
  YS02001882YS02001884        0.48      0.48      0.55      0.01         0.01
  YS02001884YS02001887        0.66      0.66      0.71      0.01         0.01
  YS02001890YS02001895        0.41      0.41      0.86      0.01         0.01
  YS02001895YS02001898        0.36      0.36      0.41      0.01         0.01
  YS02001898YS02001901        0.43      0.43      0.65      0.01         0.01
  YS02001901YS02001904        0.61      0.61      0.65      0.01         0.01
  YS02001904YS02001907        0.61      0.61      1.56      0.01         0.01
  YS02001887YS02001890        0.76      0.76      0.80      0.01         0.01
  YS02001652YS02001649        5.87      5.87      5.97      0.01         0.01
  YS02001655YS02001652        5.61      5.61      5.84      0.01         0.01
  YS02001658YS02001655        5.41      5.41      5.61      0.01         0.01
  YS02001661YS02001658        0.17      0.17      5.41      0.01         0.01
  YS02001664YS02001661        0.01      0.01      0.75      0.01         0.01
  YS02001793JiankangQianchi        4.49      4.49      7.17      0.01         0.01
  YS02001757CaochengTiaoxuchi        5.30      5.30      6.04      0.01         0.01
  
  
  ***************
  Pumping Summary
  ***************
  
  ---------------------------------------------------------------------------------------------------------
                                                  Min       Avg       Max     Total     Power    % Time Off
                        Percent   Number of      Flow      Flow      Flow    Volume     Usage    Pump Curve
  Pump                 Utilized   Start-Ups       LPS       LPS       LPS  10^6 ltr     Kw-hr    Low   High
  ---------------------------------------------------------------------------------------------------------
  CC-Pump-1                8.85           3      0.00     99.15    199.99     0.241      0.19    0.0    3.8
  CC-Pump-2               40.75           6      0.00    126.88    200.00     1.321      0.77    0.0    0.8
  JK-Pump-1               34.03           7      0.00    158.81    300.00     1.285      6.86    0.0    0.0
  JK-Pump-2               23.39           5      0.00    185.29    300.00     1.059      8.00    0.0    0.0
  XR-Pump-1               53.18           9      0.00     61.77     95.00     0.855      3.89    0.0    0.0
  XR-Pump-2                8.51           2      0.00     44.37     95.00     0.114      0.51    0.0    0.0
  XR-Pump-3                8.51           2      0.00     43.90     94.98     0.114      0.51    0.0    0.0
  XR-Pump-4               38.30           6      0.00     57.02     95.00     0.599      3.20    0.0    0.0
  

  Analysis begun on:  Wed Jan  5 17:37:19 2022
  Analysis ended on:  Wed Jan  5 17:37:21 2022
  Total elapsed time: 00:00:02