
  EPA STORM WATER MANAGEMENT MODEL - VERSION 5.1 (Build 5.3.0.dev0)
  --------------------------------------------------------------

  WARNING 04: minimum elevation drop used for Conduit WS02004404WS02004405
  WARNING 03: negative offset ignored for Link YS02001904YS02001907
  
  *********************************************************
  NOTE: The summary statistics displayed in this report are
  based on results found at every computational time step,  
  not just on results from each reporting time step.
  *********************************************************
  
  ****************
  Analysis Options
  ****************
  Flow Units ............... LPS
  Process Models:
    Rainfall/Runoff ........ YES
    RDII ................... NO
    Snowmelt ............... NO
    Groundwater ............ NO
    Flow Routing ........... YES
    Ponding Allowed ........ NO
    Water Quality .......... NO
  Infiltration Method ...... HORTON
  Flow Routing Method ...... DYNWAVE
  Surcharge Method ......... EXTRAN
  Starting Date ............ 08/28/2015 08:00:00
  Ending Date .............. 08/28/2015 15:50:00
  Antecedent Dry Days ...... 8.0
  Report Time Step ......... 00:01:00
  Wet Time Step ............ 00:01:00
  Dry Time Step ............ 00:01:00
  Routing Time Step ........ 5.00 sec
  Variable Time Step ....... YES
  Maximum Trials ........... 8
  Number of Threads ........ 4
  Head Tolerance ........... 0.001500 m
  
  
  **************************        Volume         Depth
  Runoff Quantity Continuity     hectare-m            mm
  **************************     ---------       -------
  Total Precipitation ......         5.493        12.027
  Evaporation Loss .........         0.000         0.000
  Infiltration Loss ........         1.412         3.091
  Surface Runoff ...........         3.074         6.729
  Final Storage ............         1.009         2.209
  Continuity Error (%) .....        -0.014
  
  
  **************************        Volume        Volume
  Flow Routing Continuity        hectare-m      10^6 ltr
  **************************     ---------     ---------
  Dry Weather Inflow .......         0.616         6.165
  Wet Weather Inflow .......         3.072        30.725
  Groundwater Inflow .......         0.000         0.000
  RDII Inflow ..............         0.000         0.000
  External Inflow ..........         0.102         1.024
  External Outflow .........         0.898         8.981
  Flooding Loss ............         2.338        23.381
  Evaporation Loss .........         0.000         0.000
  Exfiltration Loss ........         0.000         0.000
  Initial Stored Volume ....         0.076         0.761
  Final Stored Volume ......         0.635         6.348
  Continuity Error (%) .....        -0.093
  
  
  *************************
  Highest Continuity Errors
  *************************
  Node HS02004842 (16.38%)
  Node YS02001884 (11.25%)
  Node YSB1171 (3.16%)
  Node HS02004817 (3.01%)
  Node HS02004901 (2.34%)
  
  
  ***************************
  Time-Step Critical Elements
  ***************************
  Link WS02006252WS02006251 (54.77%)
  Link 3 (32.47%)
  Link WS02006280WS02006229 (3.47%)
  Link YS02006556YS02006558 (2.92%)
  Link WS02006238WS02006235 (1.58%)
  
  
  ********************************
  Highest Flow Instability Indexes
  ********************************
  Link WS02006113WS02006111 (48)
  Link YS02163601YS02164001 (36)
  Link YS02163301YS02001633 (36)
  Link YS02001791YS02001793 (35)
  Link YS02001629YS02163301 (35)
  
  
  *************************
  Routing Time Step Summary
  *************************
  Minimum Time Step           :     0.50 sec
  Average Time Step           :     1.12 sec
  Maximum Time Step           :     5.00 sec
  Percent in Steady State     :    -0.00
  Average Iterations per Step :     4.29
  Percent Not Converging      :    20.82
  
  
  ***************************
  Subcatchment Runoff Summary
  ***************************
  
  ------------------------------------------------------------------------------------------------------------------------------
                            Total      Total      Total      Total     Imperv       Perv      Total       Total     Peak  Runoff
                           Precip      Runon       Evap      Infil     Runoff     Runoff     Runoff      Runoff   Runoff   Coeff
  Subcatchment                 mm         mm         mm         mm         mm         mm         mm    10^6 ltr      LPS
  ------------------------------------------------------------------------------------------------------------------------------
  sub0                      12.03       0.00       0.00       0.84       9.92       0.00       9.92        0.01     2.03   0.825
  sub1                      12.03       0.00       0.00       1.32       9.45       0.00       9.45        0.06    13.40   0.786
  sub2                      12.03       0.00       0.00       4.45       6.67       0.00       6.67        0.06    12.40   0.555
  sub3                      12.03       0.00       0.00       4.45       6.63       0.00       6.63        0.15    27.80   0.552
  sub4                      12.03       0.00       0.00       1.32       9.30       0.00       9.30        0.19    33.44   0.773
  sub5                      12.03       0.00       0.00       0.84       9.87       0.00       9.87        0.11    23.84   0.821
  sub7                      12.03       0.00       0.00       1.08       9.69       0.00       9.69        0.03     7.67   0.806
  sub8                      12.03       0.00       0.00       1.08       9.68       0.00       9.68        0.06    14.05   0.805
  sub9                      12.03       0.00       0.00       1.08       9.68       0.00       9.68        0.05    10.50   0.805
  sub10                     12.03       0.00       0.00       0.96       9.77       0.00       9.77        0.11    23.44   0.813
  sub11                     12.03       0.00       0.00       0.96       9.79       0.00       9.79        0.11    26.14   0.814
  sub12                     12.03       0.00       0.00       1.56       9.28       0.00       9.28        0.08    19.99   0.771
  sub14                     12.03       0.00       0.00       1.08       9.68       0.00       9.68        0.09    20.64   0.805
  sub15                     12.03       0.00       0.00       3.61       7.44       0.00       7.44        0.13    28.31   0.619
  sub16                     12.03       0.00       0.00       3.97       7.14       0.00       7.14        0.07    18.12   0.594
  sub17                     12.03       0.00       0.00       3.85       7.24       0.00       7.24        0.06    14.90   0.602
  sub22                     12.03       0.00       0.00       5.17       6.07       0.00       6.07        0.38    88.71   0.504
  sub23                     12.03       0.00       0.00       4.45       6.71       0.00       6.71        0.32    74.74   0.558
  sub60                     12.03       0.00       0.00       1.44       7.74       0.00       7.74        2.35   221.95   0.644
  sub61                     12.03       0.00       0.00       2.04       7.85       0.00       7.85        2.42   262.11   0.653
  sub62                     12.03       0.00       0.00       0.96       8.54       0.00       8.54        2.63   273.68   0.710
  sub63                     12.03       0.00       0.00       3.49       6.87       0.00       6.87        2.08   239.63   0.571
  sub64                     12.03       0.00       0.00       1.80       7.43       0.00       7.43        2.26   211.47   0.618
  sub65                     12.03       0.00       0.00       1.56       7.55       0.00       7.55        2.32   215.23   0.628
  sub66                     12.03       0.00       0.00       3.49       6.37       0.00       6.37        1.95   191.04   0.530
  sub67                     12.03       0.00       0.00       0.96       9.00       0.00       9.00        2.78   332.67   0.749
  sub68                     12.03       0.00       0.00       1.68       8.26       0.00       8.26        2.54   285.76   0.687
  sub69                     12.03       0.00       0.00       1.80       8.55       0.00       8.55        2.00   265.64   0.711
  sub70                     12.03       8.73       0.00       6.95      11.44       0.11      11.55        2.64   261.84   0.556
  sub71                     12.03       0.00       0.00       0.96       8.33       0.00       8.33        1.97   195.24   0.692
  sub72                     12.03       0.00       0.00       0.84       6.67       0.00       6.67        1.36   105.11   0.555
  sub73                     12.03      11.24       0.00       7.83      12.57       0.08      12.65        2.97   255.46   0.544
  sub74                     12.03       0.00       0.00       9.02       2.55       0.00       2.55        1.02   143.98   0.212
  
  
  ******************
  Node Depth Summary
  ******************
  
  ---------------------------------------------------------------------------------
                                 Average  Maximum  Maximum  Time of Max    Reported
                                   Depth    Depth      HGL   Occurrence   Max Depth
  Node                 Type       Meters   Meters   Meters  days hr:min      Meters
  ---------------------------------------------------------------------------------
  WS02001211           JUNCTION     0.47     0.59     5.43     0  04:01        0.59
  WS02001212           JUNCTION     0.23     0.33     5.39     0  04:01        0.33
  WS02001213           JUNCTION     0.46     0.60     5.37     0  02:04        0.60
  WS02003069           JUNCTION     0.31     0.48     5.06     0  02:04        0.48
  WS02003072           JUNCTION     0.38     0.54     4.91     0  02:04        0.54
  WS02003073           JUNCTION     0.22     0.33     4.39     0  02:05        0.33
  WS02003060           JUNCTION     0.28     0.42     5.35     0  02:04        0.42
  WS02003066           JUNCTION     0.20     0.30     5.86     0  02:01        0.30
  WS02003059           JUNCTION     0.53     0.67     5.36     0  02:04        0.67
  WS02003067           JUNCTION     0.50     0.71     6.03     0  02:01        0.71
  WS02004401           JUNCTION     0.59     0.87     6.87     0  01:58        0.87
  WS02004402           JUNCTION     0.62     0.90     6.86     0  01:58        0.89
  WS02004403           JUNCTION     0.65     0.91     6.84     0  01:58        0.91
  WS02004404           JUNCTION     0.72     0.98     6.83     0  01:58        0.98
  WS02004406           JUNCTION     0.73     0.97     6.80     0  01:58        0.97
  WS02004409           JUNCTION     0.41     0.68     6.45     0  02:00        0.68
  WS02004410           JUNCTION     0.43     0.69     6.41     0  02:00        0.69
  WS02004411           JUNCTION     0.45     0.70     6.38     0  02:00        0.70
  WS02004412           JUNCTION     0.47     0.71     6.35     0  02:01        0.71
  WS02004413           JUNCTION     0.62     0.87     6.34     0  02:01        0.87
  WS02004405           JUNCTION     0.72     0.97     6.82     0  01:58        0.97
  WS02006109           JUNCTION     0.66     0.99     7.61     0  01:55        0.99
  WS02006110           JUNCTION     0.66     0.94     7.52     0  01:55        0.94
  WS02006111           JUNCTION     0.18     0.29     7.00     0  01:56        0.29
  WS02006112           JUNCTION     0.75     1.10     6.99     0  01:57        1.08
  WS02006113           JUNCTION     0.28     0.46     7.36     0  01:56        0.46
  WS02006115           JUNCTION     0.48     0.77     6.91     0  01:58        0.77
  WS02006116           JUNCTION     0.56     0.85     6.89     0  01:58        0.85
  WS02006230           JUNCTION     0.59     1.01     7.75     0  01:55        1.01
  WS02006231           JUNCTION     0.37     0.65     7.77     0  01:55        0.65
  WS02006232           JUNCTION     0.49     0.75     7.79     0  01:54        0.75
  WS02006234           JUNCTION     0.39     0.66     7.81     0  02:24        0.66
  WS02006235           JUNCTION     0.42     0.68     7.84     0  02:24        0.68
  WS02006238           JUNCTION     0.44     0.70     7.84     0  02:24        0.70
  WS02006240           JUNCTION     0.32     0.58     7.87     0  02:24        0.58
  WS02006242           JUNCTION     0.37     0.62     7.89     0  02:23        0.62
  WS02006243           JUNCTION     0.25     0.48     7.90     0  02:23        0.48
  WS02006245           JUNCTION     0.24     0.46     7.94     0  02:49        0.46
  WS02006247           JUNCTION     0.26     0.47     7.97     0  02:49        0.47
  WS02006248           JUNCTION     0.22     0.41     8.00     0  01:51        0.41
  WS02006249           JUNCTION     0.26     0.46     8.06     0  01:51        0.46
  WS02006239           JUNCTION     0.38     0.65     7.86     0  02:24        0.65
  WS02006251           JUNCTION     0.24     0.45     8.12     0  01:50        0.45
  WS02006252           JUNCTION     0.20     0.35     8.59     0  02:40        0.35
  WS02006253           JUNCTION     0.27     0.49     8.13     0  01:50        0.48
  WS02006256           JUNCTION     0.86     1.20     8.13     0  02:10        1.20
  WS02004138           JUNCTION     0.07     0.14     7.39     0  04:00        0.14
  WS02004407           JUNCTION     0.18     0.30     6.62     0  01:59        0.30
  WS02006228           JUNCTION     0.65     1.04     7.69     0  01:55        1.04
  WS02006229           JUNCTION     0.62     1.03     7.73     0  01:55        1.03
  WS02006280           JUNCTION     0.07     0.19     8.46     0  01:42        0.19
  WS02006284           JUNCTION     0.37     0.54     8.94     0  01:42        0.54
  WS02006287           JUNCTION     0.11     0.28     9.23     0  01:42        0.28
  WSF200               JUNCTION     0.18     0.30     5.54     0  02:01        0.30
  HS02004901           JUNCTION     0.13     0.28    10.10     0  01:39        0.28
  HS02004881           JUNCTION     0.01     0.03     9.06     0  01:43        0.03
  HS02004876           JUNCTION     0.05     0.12     9.15     0  01:43        0.12
  HS02004870           JUNCTION     0.02     0.06     9.35     0  01:43        0.06
  HS02004862           JUNCTION     0.02     0.07     9.45     0  01:44        0.07
  HS02004856           JUNCTION     0.08     0.12     9.55     0  01:44        0.12
  HS02004852           JUNCTION     0.01     0.04     9.56     0  01:52        0.04
  HS02004848           JUNCTION     0.01     0.04     9.64     0  01:51        0.04
  HS02004842           JUNCTION     0.33     0.37     9.64     0  01:51        0.37
  HS02004837           JUNCTION     0.03     0.06     9.64     0  01:51        0.06
  HS02004830           JUNCTION     0.04     0.08     9.55     0  01:45        0.08
  HS02004824           JUNCTION     0.03     0.06     9.46     0  01:54        0.06
  HS02004817           JUNCTION     0.44     0.59     9.43     0  01:43        0.59
  HS02004807           JUNCTION     0.13     0.26     9.43     0  01:43        0.26
  HS02004802           JUNCTION     0.17     0.30     9.42     0  01:43        0.29
  HS02004799           JUNCTION     0.13     0.33     9.54     0  01:40        0.33
  HS02004792           JUNCTION     0.04     0.14     9.66     0  01:40        0.14
  HS02004788           JUNCTION     0.03     0.10    10.00     0  01:40        0.10
  HS02004785           JUNCTION     0.05     0.17    10.07     0  01:40        0.17
  HS02004777           JUNCTION     0.15     0.30    10.10     0  01:39        0.30
  HS02004770           JUNCTION     0.12     0.27    10.10     0  01:39        0.27
  HS02004480           JUNCTION     0.09     0.27     9.51     0  01:41        0.27
  HS02004479           JUNCTION     0.13     0.30     9.51     0  01:40        0.30
  HS02004478           JUNCTION     0.07     0.18     9.41     0  01:42        0.18
  YS02001745           JUNCTION     0.72     0.88     8.40     0  03:07        0.88
  YS02001748           JUNCTION     1.12     2.27     9.35     0  02:04        1.32
  YS02001751           JUNCTION     1.30     2.18     9.06     0  02:04        1.53
  YS02001754           JUNCTION     1.55     2.12     8.73     0  02:06        1.81
  YS02001762           JUNCTION     1.75     2.03     8.43     0  02:38        2.02
  YS02001765           JUNCTION     1.70     1.98     8.43     0  02:37        1.97
  YS02001767           JUNCTION     1.66     1.93     8.42     0  02:47        1.92
  YS02001770           JUNCTION     1.66     1.93     8.43     0  02:06        1.90
  YS02001774           JUNCTION     1.73     1.99     8.42     0  02:06        1.96
  YS02001779           JUNCTION     1.48     1.68     8.37     0  02:03        1.68
  YS02001882           JUNCTION     0.54     1.38     8.09     0  02:30        1.36
  YS02001884           JUNCTION     0.63     1.48     8.10     0  02:29        1.47
  YS02001759           JUNCTION     1.78     2.07     8.44     0  02:06        2.06
  YS02001887           JUNCTION     0.71     1.56     8.10     0  02:31        1.54
  YS02001890           JUNCTION     0.74     1.58     8.09     0  02:29        1.57
  YS02001898           JUNCTION     0.51     1.34     8.07     0  02:29        1.33
  YS02001901           JUNCTION     0.63     1.46     8.07     0  02:29        1.45
  YS02001904           JUNCTION     0.61     1.43     8.06     0  02:31        1.42
  YS02001907           JUNCTION     0.93     1.77     8.06     0  02:29        1.76
  YS02001910           JUNCTION     0.72     1.56     8.07     0  02:28        1.55
  YS02001915           JUNCTION     0.53     1.36     8.07     0  02:29        1.35
  YS02001918           JUNCTION     0.28     1.00     8.07     0  02:30        0.99
  YS02001619           JUNCTION     1.27     1.61     8.54     0  02:02        1.56
  YS02001629           JUNCTION     1.61     1.85     8.40     0  02:03        1.85
  YS02001641           JUNCTION     1.71     1.96     8.40     0  02:07        1.93
  YS02001644           JUNCTION     1.71     1.92     8.35     0  02:07        1.92
  YS02001652           JUNCTION     1.56     2.13     8.73     0  02:23        2.02
  YS02001655           JUNCTION     1.33     2.19     9.04     0  02:25        2.02
  YS02001920           JUNCTION     0.38     1.05     8.06     0  02:30        1.05
  YS02001923           JUNCTION     0.21     0.80     8.06     0  02:30        0.80
  YS02001926           JUNCTION     0.25     0.62     8.07     0  02:30        0.62
  YS02001929           JUNCTION     0.13     0.37     8.07     0  02:29        0.37
  YS02001658           JUNCTION     1.06     2.24     9.38     0  02:25        1.97
  YS02001661           JUNCTION     0.83     2.35     9.76     0  02:25        1.93
  YS02001664           JUNCTION     0.37     0.57     8.50     0  02:20        0.56
  YS02001622           JUNCTION     1.29     1.62     8.52     0  02:03        1.55
  YS02001633           JUNCTION     1.70     1.98     8.43     0  02:07        1.94
  YS02001649           JUNCTION     1.75     2.05     8.44     0  02:18        2.05
  YS02001757           JUNCTION     1.87     2.17     8.43     0  02:49        2.17
  YS02001895           JUNCTION     0.51     1.34     8.08     0  02:28        1.33
  YS02001625           JUNCTION     1.57     1.78     8.38     0  02:03        1.78
  YS02163301           JUNCTION     1.64     1.90     8.42     0  02:07        1.87
  YS02163601           JUNCTION     1.75     2.04     8.44     0  02:07        1.98
  YS02164001           JUNCTION     1.69     1.97     8.43     0  02:07        1.91
  YS02001647           JUNCTION     1.55     1.81     8.42     0  02:08        1.79
  YSB1154              JUNCTION     0.26     0.45     9.51     0  01:40        0.45
  YSB6556              JUNCTION     0.16     0.34     9.51     0  01:40        0.34
  YSB1174              JUNCTION     0.22     0.40     9.51     0  01:41        0.40
  YSB1171              JUNCTION     0.41     0.61     9.51     0  01:40        0.61
  YS02006553           JUNCTION     0.93     1.77     8.05     0  02:29        1.75
  YS02006561           JUNCTION     0.32     0.93     7.59     0  02:30        0.92
  YS02006556           JUNCTION     0.90     1.71     8.03     0  02:28        1.71
  YS02006558           JUNCTION     0.94     1.75     8.02     0  02:30        1.74
  YS02001783           JUNCTION     0.61     2.11     8.25     0  01:48        1.33
  YS02001784           JUNCTION     0.64     1.85     7.92     0  01:48        1.29
  YS02001786           JUNCTION     0.61     1.83     7.86     0  01:48        1.16
  YS02001788           JUNCTION     0.59     1.88     7.85     0  01:48        1.06
  YS02001790           JUNCTION     0.83     1.96     7.60     0  01:47        1.24
  YS02001791           JUNCTION     0.91     2.02     7.49     0  07:16        1.25
  YS02001793           JUNCTION     1.43     2.23     7.06     0  01:45        1.80
  WS02004139           JUNCTION     0.41     0.53     5.44     0  04:00        0.53
  WSC                  OUTFALL      0.22     0.33     1.00     0  02:06        0.33
  3                    OUTFALL      0.05     0.19     6.19     0  02:10        0.19
  4                    OUTFALL      0.00     0.00     7.00     0  00:00        0.00
  5                    OUTFALL      0.00     0.00     5.00     0  00:00        0.00
  JK-storage           STORAGE      5.09     5.80     6.60     0  01:47        5.80
  CC-storage           STORAGE      1.12     1.39     8.39     0  03:05        1.39
  XR-storage           STORAGE      7.62     7.72     5.72     0  00:39        7.72
  
  
  *******************
  Node Inflow Summary
  *******************
  
  -------------------------------------------------------------------------------------------------
                                  Maximum  Maximum                  Lateral       Total        Flow
                                  Lateral    Total  Time of Max      Inflow      Inflow     Balance
                                   Inflow   Inflow   Occurrence      Volume      Volume       Error
  Node                 Type           LPS      LPS  days hr:min    10^6 ltr    10^6 ltr     Percent
  -------------------------------------------------------------------------------------------------
  WS02001211           JUNCTION      7.35   188.00     0  04:00       0.207        1.88       0.696
  WS02001212           JUNCTION      0.00   180.97     0  04:01           0        1.87       0.212
  WS02001213           JUNCTION      0.00   178.85     0  04:02           0        1.87       0.754
  WS02003069           JUNCTION      0.32   663.52     0  02:04     0.00902        7.64       0.197
  WS02003072           JUNCTION      0.00   663.32     0  02:04           0        7.63       0.273
  WS02003073           JUNCTION      1.82   665.20     0  02:05      0.0514        7.66       0.287
  WS02003060           JUNCTION     16.53   663.74     0  02:03       0.466        7.65       0.187
  WS02003066           JUNCTION      0.00   557.64     0  02:01           0        5.36       0.065
  WS02003059           JUNCTION      0.00   178.85     0  04:02           0        1.86       1.407
  WS02003067           JUNCTION      0.00   557.55     0  02:01           0        5.37       0.141
  WS02004401           JUNCTION      0.00   563.60     0  01:57           0        5.55       0.310
  WS02004402           JUNCTION      0.00   562.79     0  01:58           0        5.54       0.299
  WS02004403           JUNCTION      0.00   562.37     0  01:58           0        5.52       0.278
  WS02004404           JUNCTION      0.16   561.97     0  01:58     0.00457        5.51       0.216
  WS02004406           JUNCTION      0.00   562.37     0  01:58           0        5.48       0.529
  WS02004409           JUNCTION      0.00   561.56     0  01:59           0        5.45       0.210
  WS02004410           JUNCTION      0.00   559.57     0  02:00           0        5.43       0.249
  WS02004411           JUNCTION      0.00   558.63     0  02:00           0        5.42       0.264
  WS02004412           JUNCTION      0.00   558.03     0  02:00           0        5.41       0.297
  WS02004413           JUNCTION      0.00   557.72     0  02:01           0        5.39       0.457
  WS02004405           JUNCTION      0.04   562.02     0  01:58     0.00107         5.5       0.324
  WS02006109           JUNCTION      1.23   556.85     0  01:55      0.0347        5.58       0.256
  WS02006110           JUNCTION      0.00   556.65     0  01:55           0        5.57       0.280
  WS02006111           JUNCTION      0.00   580.43     0  01:56           0        5.55       0.058
  WS02006112           JUNCTION     14.90   573.30     0  01:55      0.0621        5.61       0.440
  WS02006113           JUNCTION      0.00   556.62     0  01:56           0        5.55       0.113
  WS02006115           JUNCTION      0.00   575.13     0  01:57           0        5.58       0.261
  WS02006116           JUNCTION      0.00   566.09     0  01:56           0        5.57       0.257
  WS02006230           JUNCTION     10.28   312.32     0  06:43        0.29        3.74       0.308
  WS02006231           JUNCTION      0.00   302.09     0  06:42           0        3.45       0.161
  WS02006232           JUNCTION      0.00   302.15     0  06:42           0        3.45       0.367
  WS02006234           JUNCTION      0.00   302.25     0  06:42           0        3.45       0.114
  WS02006235           JUNCTION      0.00   302.36     0  06:41           0        3.52       0.245
  WS02006238           JUNCTION      0.00   256.08     0  02:50           0        2.13       0.207
  WS02006240           JUNCTION      0.00   244.92     0  02:51           0        2.07       0.274
  WS02006242           JUNCTION      0.00   244.13     0  01:52           0        2.05       0.323
  WS02006243           JUNCTION      0.00   249.15     0  01:51           0        2.03      -0.340
  WS02006245           JUNCTION      0.00   252.75     0  01:51           0        2.04       0.507
  WS02006247           JUNCTION      0.00   255.75     0  01:51           0        2.04       0.051
  WS02006248           JUNCTION      0.00   258.13     0  01:51           0        2.04      -0.223
  WS02006249           JUNCTION      0.00   261.75     0  01:50           0        2.04       0.346
  WS02006239           JUNCTION      0.00   250.56     0  02:50           0         2.1      -0.039
  WS02006251           JUNCTION      0.08   267.06     0  01:50     0.00217        2.06      -0.040
  WS02006252           JUNCTION      0.00   200.00     0  02:40           0        1.68       0.008
  WS02006253           JUNCTION      2.03    76.41     0  01:43     0.00803       0.378       0.042
  WS02006256           JUNCTION      0.00   599.97     0  02:10           0        2.79       0.122
  WS02004138           JUNCTION      0.00   189.94     0  04:00           0        1.68       0.012
  WS02004407           JUNCTION      0.00   561.80     0  01:58           0        5.45       0.094
  WS02006228           JUNCTION      0.00   555.62     0  01:55           0        5.56       0.217
  WS02006229           JUNCTION      0.00   554.83     0  01:56           0        5.58       0.243
  WS02006280           JUNCTION      0.00   366.29     0  01:42           0        1.87       0.003
  WS02006284           JUNCTION      0.10   366.32     0  01:42      0.0027        1.87       0.028
  WS02006287           JUNCTION      0.00   366.24     0  01:42           0        1.87       0.038
  WSF200               JUNCTION      0.00   557.67     0  02:01           0        5.36       0.053
  HS02004901           JUNCTION     18.12    18.12     0  01:36      0.0747      0.0749       2.401
  HS02004881           JUNCTION      7.67    74.62     0  01:43      0.0326       0.352       0.051
  HS02004876           JUNCTION     13.40    67.34     0  01:43      0.0628        0.32       0.168
  HS02004870           JUNCTION     14.05    54.07     0  01:43      0.0618       0.257       0.040
  HS02004862           JUNCTION     12.60    40.56     0  01:44      0.0678       0.196       0.087
  HS02004856           JUNCTION     10.50    27.98     0  01:43      0.0465       0.129       1.122
  HS02004852           JUNCTION      0.00    17.93     0  01:51           0      0.0829       0.064
  HS02004848           JUNCTION     27.80    27.80     0  01:53       0.149       0.149       0.028
  HS02004842           JUNCTION      0.00    10.09     0  01:58           0      0.0794      19.594
  HS02004837           JUNCTION     29.79    38.22     0  01:51       0.287       0.353       0.229
  HS02004830           JUNCTION      0.15    38.36     0  01:51     0.00423       0.344       0.361
  HS02004824           JUNCTION     33.49    71.74     0  01:54       0.195       0.538       0.099
  HS02004817           JUNCTION      0.60    72.33     0  01:54      0.0169       0.554       3.103
  HS02004807           JUNCTION     26.14    95.63     0  01:52       0.114       0.651       0.672
  HS02004802           JUNCTION      0.00    95.92     0  01:53           0       0.649       0.614
  HS02004799           JUNCTION     20.64   230.91     0  01:40      0.0921        1.05       0.258
  HS02004792           JUNCTION     88.99   210.34     0  01:39       0.391       0.955       0.041
  HS02004788           JUNCTION     29.98   122.05     0  01:40       0.175       0.565       0.069
  HS02004785           JUNCTION      0.15    92.14     0  01:39     0.00423       0.391       0.125
  HS02004777           JUNCTION      0.03    92.19     0  01:38    0.000846       0.391       1.344
  HS02004770           JUNCTION     74.74    92.54     0  01:38        0.32       0.393       0.789
  HS02004480           JUNCTION      0.00   273.94     0  01:41           0        1.24       0.088
  HS02004479           JUNCTION      0.00    43.17     0  01:41           0       0.201       0.365
  HS02004478           JUNCTION      0.00   366.18     0  01:42           0        1.87       0.020
  YS02001745           JUNCTION    221.95   452.95     0  02:04        2.35        2.36       0.493
  YS02001748           JUNCTION      0.04   624.93     0  02:04     0.00127        2.35       0.918
  YS02001751           JUNCTION      0.01   341.68     0  02:02     0.00031        2.31       1.015
  YS02001754           JUNCTION      0.26   246.72     0  02:05     0.00733         2.3       1.094
  YS02001762           JUNCTION      0.00   282.17     0  02:01           0        1.77       1.204
  YS02001765           JUNCTION      0.00   278.06     0  02:01           0        1.77       1.378
  YS02001767           JUNCTION      0.54   274.27     0  02:01      0.0151        1.79       2.024
  YS02001770           JUNCTION    273.83   356.53     0  03:09        2.63        2.91       1.092
  YS02001774           JUNCTION      0.00   357.24     0  03:09           0        1.38       1.826
  YS02001779           JUNCTION      0.01   357.63     0  03:09    0.000141        1.36       1.136
  YS02001882           JUNCTION      0.00    13.85     0  02:06           0      0.0152      16.132
  YS02001884           JUNCTION      0.00    25.41     0  01:50           0      0.0508      12.679
  YS02001759           JUNCTION    262.15   535.21     0  02:14        2.42        3.88       0.591
  YS02001887           JUNCTION    333.12   336.94     0  02:10        2.79        2.82       0.286
  YS02001890           JUNCTION      0.00   337.22     0  02:11           0        2.77       0.316
  YS02001898           JUNCTION      0.00   341.10     0  02:10           0        2.76       0.094
  YS02001901           JUNCTION      0.00   335.76     0  02:10           0        2.76       0.238
  YS02001904           JUNCTION      0.00   335.25     0  02:10           0        2.76       0.214
  YS02001907           JUNCTION      0.00   620.49     0  02:32           0        6.14       0.382
  YS02001910           JUNCTION      0.00   320.59     0  03:05           0        3.39       0.333
  YS02001915           JUNCTION    195.26   315.75     0  03:03        1.97         3.4       0.165
  YS02001918           JUNCTION      0.00   133.76     0  02:51           0        1.43       0.124
  YS02001619           JUNCTION    191.04   191.04     0  02:29        1.95        1.95       0.629
  YS02001629           JUNCTION      0.00   210.47     0  01:47           0        1.78       1.622
  YS02001641           JUNCTION      0.00   402.13     0  02:03           0           4       0.529
  YS02001644           JUNCTION    211.51  1042.50     0  03:04        2.26         9.9       0.265
  YS02001652           JUNCTION      0.00   314.81     0  02:02           0        2.03       1.132
  YS02001655           JUNCTION      0.15   418.80     0  01:56     0.00434        2.06       1.226
  YS02001920           JUNCTION      2.87   131.38     0  02:51      0.0809        1.44       0.191
  YS02001923           JUNCTION      0.04   115.47     0  02:51     0.00106        1.36       0.054
  YS02001926           JUNCTION      0.05   122.68     0  02:52     0.00147        1.36       0.220
  YS02001929           JUNCTION    105.11   105.11     0  02:59        1.36        1.36       0.037
  YS02001658           JUNCTION      0.00   653.97     0  02:02           0        2.08       1.103
  YS02001661           JUNCTION      0.00   635.64     0  02:20           0        2.36      -0.071
  YS02001664           JUNCTION    239.63   371.78     0  02:20        2.08        2.36       0.286
  YS02001622           JUNCTION      0.00   191.31     0  02:29           0        1.94       1.656
  YS02001633           JUNCTION    215.43   402.12     0  02:03        2.33        4.06       0.791
  YS02001649           JUNCTION      0.00   842.67     0  02:15           0        5.92       0.625
  YS02001757           JUNCTION      0.00  1568.20     0  02:15           0        8.22       1.131
  YS02001895           JUNCTION      0.00   337.03     0  02:11           0        2.77       0.181
  YS02001625           JUNCTION      0.00   210.75     0  01:47           0        1.91       2.093
  YS02163301           JUNCTION      0.00   216.03     0  02:03           0        1.77       1.372
  YS02163601           JUNCTION      0.11   402.68     0  02:03      0.0031        4.01       0.751
  YS02164001           JUNCTION      0.00   402.99     0  02:03           0        3.99       0.499
  YS02001647           JUNCTION      0.00   599.73     0  02:16           0        5.18       0.543
  YSB1154              JUNCTION     23.84    23.84     0  01:41       0.112       0.113       1.298
  YSB6556              JUNCTION      0.00    24.02     0  01:41           0       0.113       1.117
  YSB1174              JUNCTION     19.99    19.99     0  01:36       0.081      0.0815       1.596
  YSB1171              JUNCTION      0.00    43.58     0  01:40           0         0.2       3.265
  YS02006553           JUNCTION      0.00   620.37     0  02:32           0        6.13       0.249
  YS02006561           JUNCTION      0.00   900.39     0  02:30           0        8.64       0.008
  YS02006556           JUNCTION      0.00   620.26     0  02:33           0        6.14       0.180
  YS02006558           JUNCTION    286.64   900.89     0  02:30        2.56        8.67       0.057
  YS02001783           JUNCTION      0.00   900.58     0  02:30           0        8.64       0.024
  YS02001784           JUNCTION      1.06   901.75     0  02:30      0.0299        8.66       0.040
  YS02001786           JUNCTION      0.06   901.69     0  02:31     0.00159        8.66       0.036
  YS02001788           JUNCTION      0.07   901.68     0  02:30       0.002        8.66       0.022
  YS02001790           JUNCTION      0.15   901.96     0  02:31     0.00437        8.67       0.015
  YS02001791           JUNCTION      0.00   901.86     0  02:31           0        8.68       0.009
  YS02001793           JUNCTION      0.00   902.14     0  02:31           0         8.7      -0.010
  WS02004139           JUNCTION      0.32   189.30     0  04:00     0.00905        1.69       0.822
  WSC                  OUTFALL       0.00   665.26     0  02:06           0        7.63       0.000
  3                    OUTFALL       0.00   474.20     0  02:10           0        1.35       0.000
  4                    OUTFALL       0.00     0.00     0  00:00           0           0       0.000 ltr
  5                    OUTFALL       0.00     0.00     0  00:00           0           0       0.000 ltr
  JK-storage           STORAGE       0.00   902.04     0  02:30           0        8.83      -0.159
  CC-storage           STORAGE       0.00  1568.25     0  02:15           0        5.69       1.152
  XR-storage           STORAGE     560.10   560.10     0  02:30        9.63        10.2      -0.002
  
  
  **********************
  Node Surcharge Summary
  **********************
  
  Surcharging occurs when water rises above the top of the highest conduit.
  ---------------------------------------------------------------------
                                               Max. Height   Min. Depth
                                   Hours       Above Crown    Below Rim
  Node                 Type      Surcharged         Meters       Meters
  ---------------------------------------------------------------------
  WS02006109           JUNCTION        1.25          0.173        1.647
  WS02006110           JUNCTION        0.17          0.026        1.824
  WS02006112           JUNCTION        0.56          0.102        1.578
  WS02006232           JUNCTION        0.27          0.052        1.428
  WS02006228           JUNCTION        1.23          0.209        1.991
  YS02001748           JUNCTION        5.64          1.190        0.000
  YS02001751           JUNCTION        5.81          1.183        0.017
  YS02001754           JUNCTION        5.96          1.068        0.082
  YS02001762           JUNCTION        6.15          1.030        0.120
  YS02001765           JUNCTION        6.13          0.977        0.123
  YS02001767           JUNCTION        6.13          0.934        0.096
  YS02001770           JUNCTION        6.11          0.901        0.019
  YS02001774           JUNCTION        6.14          0.994        0.056
  YS02001779           JUNCTION        5.95          0.680        0.000
  YS02001882           JUNCTION        0.95          0.378        0.452
  YS02001884           JUNCTION        1.00          0.424        0.446
  YS02001759           JUNCTION        6.15          1.072        0.138
  YS02001887           JUNCTION        1.12          0.508        0.442
  YS02001890           JUNCTION        1.17          0.534        0.226
  YS02001898           JUNCTION        0.86          0.308        0.432
  YS02001901           JUNCTION        1.08          0.465        0.405
  YS02001904           JUNCTION        1.04          0.431        0.419
  YS02001907           JUNCTION        1.70          0.761        0.189
  YS02001910           JUNCTION        1.23          0.565        0.535
  YS02001915           JUNCTION        0.93          0.356        0.644
  YS02001619           JUNCTION        5.82          0.610        0.000
  YS02001629           JUNCTION        5.84          0.470        0.000
  YS02001641           JUNCTION        6.13          0.960        0.140
  YS02001644           JUNCTION        6.13          0.920        0.000
  YS02001652           JUNCTION        6.05          1.103        0.027
  YS02001655           JUNCTION        5.85          1.194        0.006
  YS02001920           JUNCTION        0.27          0.054        1.086
  YS02001658           JUNCTION        5.68          1.241        0.059
  YS02001661           JUNCTION        0.17          1.285        0.105
  YS02001622           JUNCTION        5.86          0.620        0.000
  YS02001633           JUNCTION        6.12          0.960        0.100
  YS02001649           JUNCTION        6.15          1.050        0.000
  YS02001757           JUNCTION        6.19          1.174        0.036
  YS02001895           JUNCTION        0.89          0.336        0.414
  YS02001625           JUNCTION        6.09          0.780        0.000
  YS02163301           JUNCTION        6.11          0.902        0.128
  YS02163601           JUNCTION        6.15          1.038        0.042
  YS02164001           JUNCTION        6.12          0.969        0.131
  YS02001647           JUNCTION        6.08          0.806        0.094
  YS02006553           JUNCTION        1.79          0.769        0.421
  YS02006561           JUNCTION        0.62          0.129        1.021
  YS02006556           JUNCTION        1.48          0.674        0.676
  YS02006558           JUNCTION        1.43          0.653        0.747
  YS02001783           JUNCTION        1.64          1.312        0.288
  YS02001784           JUNCTION        1.70          1.052        0.438
  YS02001786           JUNCTION        1.64          1.031        0.399
  YS02001788           JUNCTION        1.63          1.078        0.402
  YS02001790           JUNCTION        4.68          1.157        0.000
  YS02001791           JUNCTION        5.12          1.220        0.700
  YS02001793           JUNCTION        5.62          1.230        1.370
  
  
  *********************
  Node Flooding Summary
  *********************
  
  Flooding refers to all water that overflows a node, whether it ponds or not.
  --------------------------------------------------------------------------
                                                             Total   Maximum
                                 Maximum   Time of Max       Flood    Ponded
                        Hours       Rate    Occurrence      Volume     Depth
  Node                 Flooded       LPS   days hr:min    10^6 ltr    Meters
  --------------------------------------------------------------------------
  YS02001748              0.01    183.81      0  02:06       0.000     0.000
  YS02001779              2.63    357.60      0  03:09       1.336     0.000
  YS02001619              0.01     19.14      0  02:04       0.000     0.000
  YS02001629              0.01     38.70      0  02:03       0.000     0.000
  YS02001644              5.26   1041.96      0  03:04       8.345     0.000
  YS02001622              0.01     41.73      0  02:03       0.000     0.000
  YS02001649              0.06     44.38      0  02:25       0.003     0.000
  YS02001625              0.91     48.81      0  02:30       0.108     0.000
  YS02001790              0.01    220.07      0  01:47       0.000     0.000
  JK-storage              4.37    846.27      0  02:50       5.967     0.000
  XR-storage              7.18    555.07      0  02:40       7.622     0.000
  
  
  **********************
  Storage Volume Summary
  **********************
  
  --------------------------------------------------------------------------------------------------
                         Average     Avg  Evap Exfil       Maximum     Max    Time of Max    Maximum
                          Volume    Pcnt  Pcnt  Pcnt        Volume    Pcnt     Occurrence    Outflow
  Storage Unit           1000 m3    Full  Loss  Loss       1000 m3    Full    days hr:min        LPS
  --------------------------------------------------------------------------------------------------
  JK-storage               0.256      88     0     0         0.291     100       0  01:47     599.97
  CC-storage               3.130      20     0     0         3.876      25       0  03:05     202.38
  XR-storage               0.915      99     0     0         0.926     100       0  00:39     189.94
  
  
  ***********************
  Outfall Loading Summary
  ***********************
  
  -----------------------------------------------------------
                         Flow       Avg       Max       Total
                         Freq      Flow      Flow      Volume
  Outfall Node           Pcnt       LPS       LPS    10^6 ltr
  -----------------------------------------------------------
  WSC                   99.99    325.17    665.26       7.634
  3                     52.64    145.24    474.20       1.346
  4                      0.00      0.00      0.00       0.000
  5                      0.00      0.00      0.00       0.000
  -----------------------------------------------------------
  System                38.16    470.41   1133.78       8.981
  
  
  ********************
  Link Flow Summary
  ********************
  
  -----------------------------------------------------------------------------
                                 Maximum  Time of Max   Maximum    Max/    Max/
                                  |Flow|   Occurrence   |Veloc|    Full    Full
  Link                 Type          LPS  days hr:min     m/sec    Flow   Depth
  -----------------------------------------------------------------------------
  WS02003066WSF200     CONDUIT    557.67     0  02:01      2.83    0.09    0.23
  WS02006287WS02006284 CONDUIT    366.23     0  01:42      1.96    0.17    0.29
  WS02006284WS02006280 CONDUIT    366.29     0  01:42      2.20    0.15    0.26
  WS02006280WS02006229 CONDUIT    366.30     0  01:43      3.55    0.08    0.19
  WS02006229WS02006228 CONDUIT    555.62     0  01:55      1.11    1.84    1.00
  WS02006256WS02006235 CONDUIT    166.25     0  00:01      2.58    1.76    1.00
  WS02006253WS02006251 CONDUIT     80.19     0  01:55      0.60    0.24    0.66
  WS02006252WS02006251 CONDUIT    200.34     0  02:40      1.97    0.74    0.76
  WS02006251WS02006249 CONDUIT    261.75     0  01:50      1.00    0.75    0.65
  WS02006249WS02006248 CONDUIT    258.13     0  01:51      1.07    1.41    0.61
  WS02006248WS02006247 CONDUIT    255.75     0  01:51      1.04    0.56    0.63
  WS02006247WS02006245 CONDUIT    252.75     0  01:51      0.99    2.00    0.66
  WS02006245WS02006243 CONDUIT    249.15     0  01:51      1.05    0.74    0.66
  WS02006243WS02006242 CONDUIT    244.13     0  01:52      0.91    0.52    0.77
  WS02006242WS02006240 CONDUIT    244.92     0  02:51      0.81    0.97    0.85
  WS02006240WS02006239 CONDUIT    250.56     0  02:50      0.90    0.79    0.85
  WS02006239WS02006238 CONDUIT    256.08     0  02:50      0.77    0.82    0.95
  WS02006238WS02006235 CONDUIT    258.99     0  02:50      1.25    0.58    0.98
  WS02006235WS02006234 CONDUIT    302.25     0  06:42      0.96    3.19    0.93
  WS02006234WS02006232 CONDUIT    302.15     0  06:42      1.13    0.61    0.97
  WS02006232WS02006231 CONDUIT    302.09     0  06:42      0.93    0.63    0.95
  WS02006231WS02006230 CONDUIT    302.04     0  06:43      1.28    4.58    0.91
  WS02006230WS02006229 CONDUIT    312.28     0  06:43      0.86    6.95    1.00
  WS02006228WS02006109 CONDUIT    555.62     0  01:55      1.11    2.43    1.00
  WS02006116WS02004401 CONDUIT    563.60     0  01:57      0.79    0.78    0.86
  WS02006115WS02006116 CONDUIT    566.09     0  01:56      0.87    0.73    0.78
  WS02006113WS02006111 CONDUIT    580.43     0  01:56      2.49    0.70    0.47
  WS02006112WS02006115 CONDUIT    575.13     0  01:57      0.79    0.34    0.88
  WS02006111WS02006112 CONDUIT    561.32     0  01:56      1.55    0.27    0.68
  WS02006110WS02006113 CONDUIT    556.62     0  01:56      1.31    0.51    0.79
  WS02006109WS02006110 CONDUIT    556.65     0  01:55      1.11    1.07    1.00
  WS02004411WS02004412 CONDUIT    558.03     0  02:00      0.94    0.79    0.71
  WS02004401WS02004402 CONDUIT    562.79     0  01:58      0.77    0.68    0.88
  WS02004413WS02003067 CONDUIT    557.55     0  02:01      1.13    0.24    0.60
  WS02004412WS02004413 CONDUIT    557.72     0  02:01      0.84    0.37    0.79
  WS02004410WS02004411 CONDUIT    558.63     0  02:00      0.95    0.76    0.70
  WS02004409WS02004410 CONDUIT    559.57     0  02:00      0.98    0.72    0.69
  WS02004407WS02004409 CONDUIT    561.56     0  01:59      1.47    0.20    0.49
  WS02004406WS02004407 CONDUIT    561.80     0  01:58      1.07    0.25    0.64
  WS02004405WS02004406 CONDUIT    562.37     0  01:58      0.72    1.11    0.97
  WS02004404WS02004405 CONDUIT    561.98     0  01:58      0.84    5.51    0.98
  WS02004403WS02004404 CONDUIT    561.81     0  01:58      0.74    0.41    0.94
  WS02004402WS02004403 CONDUIT    562.37     0  01:58      0.75    0.81    0.90
  WS02004139WS02001211 CONDUIT    180.65     0  04:00      0.53    0.23    0.43
  WS02004138WS02004139 CONDUIT    188.98     0  04:00      2.39    0.04    0.31
  WS02003067WS02003066 CONDUIT    557.64     0  02:01      1.23    0.18    0.42
  WS02001213WS02003059 CONDUIT    178.85     0  04:02      0.41    0.30    0.63
  WS02001212WS02001213 CONDUIT    178.85     0  04:02      0.99    0.28    0.30
  WS02001211WS02001212 CONDUIT    180.97     0  04:01      0.51    0.14    0.46
  WS02003072WS02003073 CONDUIT    663.38     0  02:05      1.53    1.43    0.41
  WS02003069WS02003072 CONDUIT    663.32     0  02:04      1.45    0.32    0.42
  WS02003060WS02003069 CONDUIT    663.20     0  02:04      1.71    0.26    0.37
  WS02003059WS02003060 CONDUIT    178.61     0  04:03      0.56    0.12    0.55
  HS02004901HS02004770 CONDUIT     17.82     0  01:38      0.06    0.07    0.40
  HS02004876HS02004881 CONDUIT     67.33     0  01:43      0.89    0.72    0.11
  HS02004870HS02004876 CONDUIT     54.06     0  01:43      0.61    0.04    0.13
  HS02004842HS02004848 CONDUIT     10.09     0  01:58      0.05    0.01    0.30
  HS02004837HS02004842 CONDUIT     10.34     0  02:00      0.41    0.01    0.31
  HS02004830HS02004837 CONDUIT     38.21     0  01:51      0.54    0.04    0.10
  HS02004824HS02004830 CONDUIT     38.37     0  01:52      0.57    0.05    0.10
  HS02004817HS02004824 CONDUIT     71.73     0  01:54      0.22    0.03    0.46
  HS02004770HS02004777 CONDUIT     92.16     0  01:38      0.32    0.17    0.41
  HS02004799HS02004480 CONDUIT    230.86     0  01:40      0.78    0.29    0.42
  HS02004792HS02004799 CONDUIT    210.30     0  01:40      0.89    0.13    0.34
  HS02004788HS02004792 CONDUIT    122.01     0  01:40      1.02    0.08    0.17
  HS02004785HS02004788 CONDUIT     92.10     0  01:40      0.67    0.69    0.20
  HS02004777HS02004785 CONDUIT     91.99     0  01:39      0.39    0.11    0.34
  HS02004480HS02004478 CONDUIT    273.64     0  01:41      1.21    1.15    0.32
  HS02004479HS02004480 CONDUIT     43.47     0  01:42      0.30    0.04    0.41
  HS02004862HS02004870 CONDUIT     40.54     0  01:45      0.62    0.04    0.09
  HS02004848HS02004852 CONDUIT     17.93     0  01:51      0.42    0.02    0.06
  HS02004856HS02004862 CONDUIT     27.96     0  01:44      0.46    0.03    0.09
  HS02004852HS02004856 CONDUIT     17.92     0  01:52      0.22    0.02    0.12
  HS02004802HS02004478 CONDUIT     96.20     0  01:53      0.42    0.08    0.34
  HS02004478WS02006287 CONDUIT    366.24     0  01:42      1.67    0.10    0.24
  HS02004817HS02004807 CONDUIT     72.77     0  01:55      0.17    0.04    0.61
  HS02004807HS02004802 CONDUIT     95.92     0  01:53      0.36    0.18    0.39
  YS02001759YS02001757 CONDUIT    535.68     0  02:14      0.68    0.38    1.00
  YS02001762YS02001759 CONDUIT    285.78     0  02:01      0.36    0.33    1.00
  YS02001765YS02001762 CONDUIT    282.17     0  02:01      0.36    0.26    1.00
  YS02001770YS02001767 CONDUIT    273.74     0  02:01      0.42    1.08    1.00
  YS02001774YS02001770 CONDUIT    357.24     0  03:09      0.45    0.23    1.00
  YS02001779YS02001774 CONDUIT    357.63     0  03:09      0.46    0.18    1.00
  YS02001649YS02001757 CONDUIT    842.71     0  02:15      1.07    0.51    1.00
  YS02001767YS02001765 CONDUIT    278.06     0  02:01      0.38    0.35    1.00
  YS02006561YS02001783 CONDUIT    900.58     0  02:30      2.08    0.47    1.00
  YS02001783YS02001784 CONDUIT    900.69     0  02:30      1.79    1.24    1.00
  YS02001784YS02001785 CONDUIT    901.63     0  02:31      1.79    2.10    1.00
  YS02001788YS02001790 CONDUIT    901.81     0  02:31      2.13    0.66    1.00
  YS02001790YS02001791 CONDUIT    901.86     0  02:31      2.52    0.98    1.00
  YS02001791YS02001793 CONDUIT    902.14     0  02:31      4.98    0.39    1.00
  YS02001910YS02001907 CONDUIT    320.76     0  03:05      0.49    0.18    1.00
  YS02001786YS02001788 CONDUIT    901.61     0  02:30      2.06    1.74    1.00
  YS02001915YS02001910 CONDUIT    320.59     0  03:05      0.58    0.16    1.00
  YS02001918YS02001915 CONDUIT    145.64     0  03:07      0.44    0.08    1.00
  YS02001923YS02001920 CONDUIT    128.51     0  02:51      0.68    0.06    0.90
  YS02001926YS02001923 CONDUIT    115.43     0  02:51      0.78    0.16    0.61
  YS02001929YS02001926 CONDUIT    122.63     0  02:52      0.83    0.06    0.49
  YS02001920YS02001918 CONDUIT    133.76     0  02:51      0.66    0.13    1.00
  YS02001629YS02163301 CONDUIT    216.03     0  02:03      0.28    0.27    1.00
  YS02001619YS02001622 CONDUIT    191.31     0  02:29      0.73    0.28    1.00
  YS02001622YS02001625 CONDUIT    210.75     0  01:47      0.36    0.11    1.00
  YS02001625YS02001629 CONDUIT    210.47     0  01:47      0.30    0.10    1.00
  YS02163301YS02001633 CONDUIT    216.22     0  02:03      0.28    0.20    1.00
  YS02163601YS02164001 CONDUIT    402.99     0  02:03      0.51    0.36    1.00
  YS02164001YS02001641 CONDUIT    402.13     0  02:03      0.51    0.55    1.00
  YS02001641YS02001644 CONDUIT    401.99     0  02:03      0.51    1.30    1.00
  YS02001647YS02001649 CONDUIT    600.03     0  02:16      0.76    0.32    1.00
  YS02006553YS02006556 CONDUIT    620.26     0  02:33      0.79    0.53    1.00
  YS02006556YS02006558 CONDUIT    620.61     0  02:33      0.79    0.49    1.00
  YSB6556YSB1171       CONDUIT     24.42     0  01:43      0.09    0.03    0.68
  YS02001907YS02006553 CONDUIT    620.37     0  02:32      0.69    0.73    1.00
  YS02006558YS02006561 CONDUIT    900.39     0  02:30      3.18    1.99    1.00
  YS02001633YS02163601 CONDUIT    402.57     0  02:03      0.51    0.42    1.00
  YS02001644YS02001647 CONDUIT    599.73     0  02:16      0.76    0.35    1.00
  YS02001745YS02001748 CONDUIT    624.88     0  02:04      1.64    0.24    0.94
  YS02001748YS02001751 CONDUIT    341.66     0  02:02      1.22    0.17    1.00
  YS02001751YS02001754 CONDUIT    246.46     0  02:05      1.05    0.12    1.00
  YS02001754YS02001757 CONDUIT    246.92     0  02:05      0.33    0.10    1.00
  YS02001882YS02001884 CONDUIT     15.73     0  01:51      0.15    0.02    1.00
  YS02001884YS02001887 CONDUIT     25.41     0  01:50      0.11    0.03    1.00
  YS02001890YS02001895 CONDUIT    337.03     0  02:11      0.47    0.16    1.00
  YS02001895YS02001898 CONDUIT    341.10     0  02:10      0.59    0.59    1.00
  YS02001898YS02001901 CONDUIT    335.76     0  02:10      0.49    0.22    1.00
  YS02001901YS02001904 CONDUIT    335.25     0  02:10      0.45    0.52    1.00
  YS02001904YS02001907 CONDUIT    336.30     0  02:10      0.43    0.12    1.00
  YS02001887YS02001890 CONDUIT    337.22     0  02:11      0.43    0.58    1.00
  YS02001652YS02001649 CONDUIT    307.95     0  02:02      0.61    0.15    1.00
  YS02001655YS02001652 CONDUIT    314.81     0  02:02      1.11    0.15    1.00
  YS02001658YS02001655 CONDUIT    418.65     0  01:56      1.42    0.18    1.00
  YS02001661YS02001658 CONDUIT    653.97     0  02:02      1.73    0.26    1.00
  YS02001664YS02001661 CONDUIT    635.64     0  02:20      1.64    0.20    0.73
  YSB1154YSB6556       CONDUIT     24.02     0  01:41      0.15    0.04    0.57
  YSB1174YSB1171       CONDUIT     20.00     0  01:36      0.07    0.03    0.68
  YSB1171HS02004479    CONDUIT     43.17     0  01:41      0.54    0.03    0.54
  HS02004881HS02006253 CONDUIT     74.61     0  01:43      2.14    0.01    0.13
  YS02001793JiankangQianchi CONDUIT    902.04     0  02:30      2.28    0.07    1.00
  YS02001757CaochengTiaoxuchi CONDUIT   1568.25     0  02:15      2.46    0.69    1.00
  WSF200WS02003060     CONDUIT    557.66     0  02:02      1.98    0.12    0.30
  1                    CONDUIT    665.26     0  02:06      2.97    0.23    0.33
  2                    CONDUIT      0.00     0  00:00      0.00    0.00    0.00
  3                    CONDUIT    474.20     0  02:10      9.70    0.76    0.65
  4                    CONDUIT      0.00     0  00:00      0.00    0.00    0.00
  CC-Pump-1            PUMP       200.00     0  02:40              1.00
  CC-Pump-2            PUMP       200.00     0  06:20              1.00
  JK-Pump-1            PUMP       300.00     0  00:00              1.00
  JK-Pump-2            PUMP       300.00     0  02:10              1.00
  XR-Pump-1            PUMP        95.00     0  03:20              1.00
  XR-Pump-2            PUMP         0.00     0  00:00              0.00
  XR-Pump-3            PUMP        94.96     0  01:50              1.00
  XR-Pump-4            PUMP        95.00     0  00:00              1.00
  
  
  ***************************
  Flow Classification Summary
  ***************************
  
  -------------------------------------------------------------------------------------
                      Adjusted    ---------- Fraction of Time in Flow Class ---------- 
                       /Actual         Up    Down  Sub   Sup   Up    Down  Norm  Inlet 
  Conduit               Length    Dry  Dry   Dry   Crit  Crit  Crit  Crit  Ltd   Ctrl  
  -------------------------------------------------------------------------------------
  WS02003066WSF200        1.00   0.08  0.00  0.00  0.00  0.92  0.00  0.00  0.73  0.00
  WS02006287WS02006284    1.00   0.05  0.01  0.00  0.54  0.39  0.00  0.00  0.72  0.00
  WS02006284WS02006280    1.00   0.06  0.00  0.00  0.00  0.00  0.00  0.94  0.00  0.00
  WS02006280WS02006229    1.00   0.06  0.00  0.00  0.00  0.00  0.00  0.94  0.00  0.00
  WS02006229WS02006228    1.00   0.00  0.00  0.00  0.98  0.00  0.00  0.02  0.00  0.00
  WS02006256WS02006235    1.00   0.00  0.00  0.00  1.00  0.00  0.00  0.00  0.00  0.00
  WS02006253WS02006251    1.00   0.04  0.01  0.00  0.94  0.00  0.01  0.00  0.00  0.00
  WS02006252WS02006251    1.00   0.09  0.00  0.00  0.00  0.00  0.91  0.00  0.00  0.00
  WS02006251WS02006249    1.00   0.00  0.00  0.00  1.00  0.00  0.00  0.00  0.40  0.00
  WS02006249WS02006248    1.00   0.00  0.03  0.00  0.72  0.00  0.25  0.00  0.00  0.00
  WS02006248WS02006247    1.00   0.03  0.00  0.00  0.97  0.00  0.00  0.00  0.31  0.00
  WS02006247WS02006245    1.00   0.03  0.00  0.00  0.96  0.00  0.00  0.01  0.00  0.00
  WS02006245WS02006243    1.00   0.02  0.01  0.00  0.90  0.00  0.00  0.07  0.03  0.00
  WS02006243WS02006242    1.00   0.01  0.01  0.00  0.99  0.00  0.00  0.00  0.33  0.00
  WS02006242WS02006240    1.00   0.01  0.00  0.00  0.99  0.00  0.00  0.00  0.00  0.00
  WS02006240WS02006239    1.00   0.00  0.00  0.00  0.94  0.00  0.00  0.05  0.02  0.00
  WS02006239WS02006238    1.00   0.00  0.00  0.00  1.00  0.00  0.00  0.00  0.15  0.00
  WS02006238WS02006235    1.00   0.00  0.00  0.00  1.00  0.00  0.00  0.00  0.00  0.00
  WS02006235WS02006234    1.00   0.00  0.00  0.00  0.96  0.00  0.04  0.00  0.00  0.00
  WS02006234WS02006232    1.00   0.00  0.00  0.00  1.00  0.00  0.00  0.00  0.08  0.00
  WS02006232WS02006231    1.00   0.00  0.00  0.00  0.99  0.00  0.01  0.00  0.00  0.00
  WS02006231WS02006230    1.00   0.00  0.00  0.00  0.29  0.00  0.70  0.00  0.00  0.00
  WS02006230WS02006229    1.00   0.00  0.00  0.00  0.98  0.00  0.00  0.02  0.01  0.00
  WS02006228WS02006109    1.00   0.00  0.00  0.00  0.99  0.00  0.00  0.00  0.01  0.00
  WS02006116WS02004401    1.00   0.03  0.00  0.00  0.97  0.00  0.00  0.00  0.00  0.00
  WS02006115WS02006116    1.00   0.03  0.00  0.00  0.96  0.00  0.00  0.01  0.00  0.00
  WS02006113WS02006111    1.00   0.03  0.00  0.00  0.00  0.97  0.00  0.00  0.17  0.00
  WS02006112WS02006115    1.00   0.03  0.00  0.00  0.97  0.00  0.00  0.00  0.00  0.00
  WS02006111WS02006112    1.00   0.03  0.00  0.00  0.97  0.00  0.00  0.00  0.98  0.00
  WS02006110WS02006113    1.00   0.01  0.01  0.00  0.97  0.00  0.00  0.00  0.00  0.00
  WS02006109WS02006110    1.00   0.00  0.01  0.00  0.98  0.00  0.01  0.00  0.00  0.00
  WS02004411WS02004412    1.00   0.05  0.00  0.00  0.95  0.00  0.00  0.00  0.00  0.00
  WS02004401WS02004402    1.00   0.03  0.00  0.00  0.97  0.00  0.00  0.00  0.00  0.00
  WS02004413WS02003067    1.00   0.05  0.02  0.00  0.00  0.00  0.92  0.00  0.00  0.00
  WS02004412WS02004413    1.00   0.05  0.00  0.00  0.95  0.00  0.00  0.00  0.04  0.00
  WS02004410WS02004411    1.00   0.05  0.00  0.00  0.95  0.00  0.00  0.00  0.03  0.00
  WS02004409WS02004410    1.00   0.05  0.00  0.00  0.95  0.00  0.00  0.00  0.00  0.00
  WS02004407WS02004409    1.00   0.05  0.00  0.00  0.95  0.00  0.00  0.00  0.89  0.00
  WS02004406WS02004407    1.00   0.00  0.05  0.00  0.95  0.00  0.00  0.00  0.00  0.00
  WS02004405WS02004406    1.00   0.00  0.00  0.00  1.00  0.00  0.00  0.00  0.01  0.00
  WS02004404WS02004405    1.00   0.00  0.00  0.00  1.00  0.00  0.00  0.00  0.00  0.00
  WS02004403WS02004404    1.00   0.00  0.03  0.00  0.97  0.00  0.00  0.00  0.01  0.00
  WS02004402WS02004403    1.00   0.03  0.00  0.00  0.97  0.00  0.00  0.00  0.00  0.00
  WS02004139WS02001211    1.00   0.00  0.00  0.00  0.99  0.00  0.01  0.00  0.00  0.00
  WS02004138WS02004139    1.00   0.00  0.00  0.00  0.98  0.01  0.00  0.00  1.00  0.00
  WS02003067WS02003066    1.00   0.08  0.00  0.00  0.92  0.00  0.00  0.00  0.00  0.00
  WS02001213WS02003059    1.00   0.00  0.01  0.00  0.99  0.00  0.00  0.00  0.00  0.00
  WS02001212WS02001213    1.00   0.01  0.00  0.00  0.46  0.00  0.53  0.00  0.00  0.00
  WS02001211WS02001212    1.00   0.00  0.01  0.00  0.99  0.00  0.00  0.00  0.00  0.00
  WS02003072WS02003073    1.00   0.00  0.00  0.00  0.00  0.00  0.00  1.00  0.00  0.00
  WS02003069WS02003072    1.00   0.00  0.00  0.00  0.99  0.01  0.00  0.00  0.78  0.00
  WS02003060WS02003069    1.00   0.00  0.00  0.00  0.97  0.03  0.00  0.00  0.45  0.00
  WS02003059WS02003060    1.00   0.00  0.00  0.00  0.99  0.01  0.00  0.00  0.02  0.00
  HS02004901HS02004770    1.00   0.06  0.00  0.00  0.94  0.00  0.00  0.00  0.00  0.00
  HS02004876HS02004881    1.00   0.03  0.00  0.00  0.89  0.08  0.00  0.00  0.00  0.00
  HS02004870HS02004876    1.00   0.01  0.00  0.00  0.99  0.00  0.00  0.00  0.95  0.00
  HS02004842HS02004848    1.00   0.00  0.06  0.00  0.94  0.00  0.00  0.00  0.58  0.00
  HS02004837HS02004842    1.00   0.00  0.00  0.00  0.99  0.01  0.00  0.00  0.11  0.00
  HS02004830HS02004837    1.00   0.00  0.00  0.00  1.00  0.00  0.00  0.00  0.99  0.00
  HS02004824HS02004830    1.00   0.00  0.00  0.00  1.00  0.00  0.00  0.00  0.00  0.00
  HS02004817HS02004824    1.00   0.00  0.00  0.00  1.00  0.00  0.00  0.00  1.00  0.00
  HS02004770HS02004777    1.00   0.00  0.06  0.00  0.94  0.00  0.00  0.00  0.02  0.00
  HS02004799HS02004480    1.00   0.00  0.03  0.00  0.94  0.00  0.03  0.00  0.00  0.00
  HS02004792HS02004799    1.00   0.00  0.00  0.00  0.98  0.02  0.00  0.00  0.98  0.00
  HS02004788HS02004792    1.00   0.00  0.00  0.00  0.98  0.02  0.00  0.00  0.98  0.00
  HS02004785HS02004788    1.00   0.00  0.00  0.00  1.00  0.00  0.00  0.00  0.00  0.00
  HS02004777HS02004785    1.00   0.00  0.00  0.00  1.00  0.00  0.00  0.00  0.12  0.00
  HS02004480HS02004478    1.00   0.06  0.00  0.00  0.60  0.00  0.00  0.34  0.00  0.00
  HS02004479HS02004480    1.00   0.04  0.00  0.00  0.96  0.00  0.00  0.00  0.11  0.00
  HS02004862HS02004870    1.00   0.00  0.00  0.00  1.00  0.00  0.00  0.00  0.03  0.00
  HS02004848HS02004852    1.00   0.06  0.00  0.00  0.94  0.00  0.00  0.00  0.78  0.00
  HS02004856HS02004862    1.00   0.00  0.07  0.00  0.93  0.00  0.00  0.00  0.83  0.00
  HS02004852HS02004856    1.00   0.06  0.00  0.00  0.94  0.00  0.00  0.00  0.86  0.00
  HS02004802HS02004478    1.00   0.06  0.00  0.00  0.94  0.00  0.00  0.00  0.02  0.00
  HS02004478WS02006287    1.00   0.06  0.00  0.00  0.69  0.25  0.00  0.00  0.69  0.00
  HS02004817HS02004807    1.00   0.00  0.06  0.00  0.94  0.00  0.00  0.00  0.01  0.00
  HS02004807HS02004802    1.00   0.06  0.00  0.00  0.94  0.00  0.00  0.00  0.00  0.00
  YS02001759YS02001757    1.00   0.00  0.00  0.00  1.00  0.00  0.00  0.00  0.16  0.00
  YS02001762YS02001759    1.00   0.00  0.00  0.00  1.00  0.00  0.00  0.00  0.03  0.00
  YS02001765YS02001762    1.00   0.00  0.00  0.00  1.00  0.00  0.00  0.00  0.13  0.00
  YS02001770YS02001767    1.00   0.00  0.00  0.00  1.00  0.00  0.00  0.00  0.00  0.00
  YS02001774YS02001770    1.00   0.00  0.06  0.00  0.94  0.00  0.00  0.00  0.03  0.00
  YS02001779YS02001774    1.00   0.00  0.00  0.00  1.00  0.00  0.00  0.00  0.17  0.00
  YS02001649YS02001757    1.00   0.00  0.00  0.00  1.00  0.00  0.00  0.00  0.16  0.00
  YS02001767YS02001765    1.00   0.00  0.00  0.00  1.00  0.00  0.00  0.00  0.00  0.00
  YS02006561YS02001783    1.00   0.07  0.00  0.00  0.68  0.25  0.00  0.00  0.58  0.00
  YS02001783YS02001784    1.00   0.00  0.07  0.00  0.93  0.00  0.00  0.00  0.00  0.00
  YS02001784YS02001785    1.00   0.00  0.00  0.00  1.00  0.00  0.00  0.00  0.17  0.00
  YS02001788YS02001790    1.00   0.00  0.00  0.00  0.88  0.12  0.00  0.00  0.27  0.00
  YS02001790YS02001791    1.00   0.00  0.00  0.00  0.86  0.14  0.00  0.00  0.08  0.00
  YS02001791YS02001793    1.00   0.00  0.00  0.00  0.86  0.14  0.00  0.00  0.01  0.00
  YS02001910YS02001907    1.00   0.00  0.00  0.00  0.97  0.00  0.00  0.03  0.12  0.00
  YS02001786YS02001788    1.00   0.00  0.00  0.00  0.84  0.16  0.00  0.00  0.00  0.00
  YS02001915YS02001910    1.00   0.00  0.00  0.00  0.98  0.02  0.00  0.00  0.14  0.00
  YS02001918YS02001915    1.00   0.00  0.01  0.00  0.97  0.02  0.00  0.00  0.57  0.00
  YS02001923YS02001920    1.00   0.00  0.00  0.00  1.00  0.00  0.00  0.00  0.82  0.00
  YS02001926YS02001923    1.00   0.00  0.04  0.00  0.20  0.00  0.75  0.00  0.00  0.00
  YS02001929YS02001926    1.00   0.00  0.06  0.00  0.94  0.00  0.00  0.00  0.78  0.00
  YS02001920YS02001918    1.00   0.00  0.01  0.00  0.99  0.00  0.00  0.00  0.00  0.00
  YS02001629YS02163301    1.00   0.06  0.00  0.00  0.94  0.00  0.00  0.00  0.00  0.00
  YS02001619YS02001622    1.00   0.06  0.00  0.00  0.94  0.00  0.00  0.00  0.00  0.00
  YS02001622YS02001625    1.00   0.06  0.00  0.00  0.94  0.00  0.00  0.00  0.04  0.00
  YS02001625YS02001629    1.00   0.06  0.01  0.00  0.92  0.00  0.01  0.00  0.00  0.00
  YS02163301YS02001633    1.00   0.00  0.06  0.00  0.94  0.00  0.00  0.00  0.00  0.00
  YS02163601YS02164001    1.00   0.00  0.05  0.00  0.95  0.00  0.00  0.00  0.00  0.00
  YS02164001YS02001641    1.00   0.01  0.04  0.00  0.95  0.00  0.00  0.00  0.06  0.00
  YS02001641YS02001644    1.00   0.00  0.01  0.00  0.99  0.00  0.00  0.00  0.00  0.00
  YS02001647YS02001649    1.00   0.00  0.06  0.00  0.93  0.00  0.00  0.00  0.01  0.00
  YS02006553YS02006556    1.00   0.02  0.00  0.00  0.98  0.00  0.00  0.00  0.03  0.00
  YS02006556YS02006558    1.00   0.00  0.00  0.00  1.00  0.00  0.00  0.00  0.00  0.00
  YSB6556YSB1171          1.00   0.04  0.02  0.00  0.94  0.00  0.00  0.00  0.00  0.00
  YS02001907YS02006553    1.00   0.00  0.03  0.00  0.97  0.00  0.00  0.00  0.00  0.00
  YS02006558YS02006561    1.00   0.07  0.00  0.00  0.24  0.69  0.00  0.00  0.51  0.00
  YS02001633YS02163601    1.00   0.00  0.01  0.00  0.99  0.00  0.00  0.00  0.15  0.00
  YS02001644YS02001647    1.00   0.00  0.07  0.00  0.93  0.00  0.00  0.00  0.00  0.00
  YS02001745YS02001748    1.00   0.00  0.00  0.00  0.91  0.00  0.00  0.09  0.03  0.00
  YS02001748YS02001751    1.00   0.00  0.00  0.00  0.98  0.02  0.00  0.00  0.14  0.00
  YS02001751YS02001754    1.00   0.00  0.00  0.00  0.93  0.00  0.00  0.07  0.01  0.00
  YS02001754YS02001757    1.00   0.00  0.00  0.00  0.99  0.01  0.00  0.00  0.17  0.00
  YS02001882YS02001884    1.00   0.06  0.00  0.00  0.94  0.00  0.00  0.00  0.00  0.00
  YS02001884YS02001887    1.00   0.04  0.01  0.00  0.95  0.00  0.00  0.00  0.00  0.00
  YS02001890YS02001895    1.00   0.00  0.06  0.00  0.94  0.00  0.00  0.00  0.00  0.00
  YS02001895YS02001898    1.00   0.06  0.00  0.00  0.93  0.00  0.01  0.00  0.00  0.00
  YS02001898YS02001901    1.00   0.06  0.00  0.00  0.94  0.00  0.00  0.00  0.01  0.00
  YS02001901YS02001904    1.00   0.06  0.00  0.00  0.94  0.00  0.00  0.00  0.00  0.00
  YS02001904YS02001907    1.00   0.00  0.06  0.00  0.94  0.00  0.00  0.00  0.00  0.00
  YS02001887YS02001890    1.00   0.00  0.00  0.00  0.97  0.00  0.03  0.00  0.00  0.00
  YS02001652YS02001649    1.00   0.00  0.00  0.00  1.00  0.00  0.00  0.00  0.15  0.00
  YS02001655YS02001652    1.00   0.00  0.00  0.00  0.93  0.00  0.00  0.07  0.01  0.00
  YS02001658YS02001655    1.00   0.00  0.06  0.00  0.92  0.02  0.00  0.00  0.02  0.00
  YS02001661YS02001658    1.00   0.06  0.00  0.00  0.91  0.03  0.00  0.00  0.03  0.00
  YS02001664YS02001661    1.00   0.06  0.00  0.00  0.88  0.06  0.00  0.00  0.15  0.00
  YSB1154YSB6556          1.00   0.06  0.00  0.00  0.94  0.00  0.00  0.00  0.01  0.00
  YSB1174YSB1171          1.00   0.04  0.01  0.00  0.95  0.00  0.00  0.00  0.00  0.00
  YSB1171HS02004479       1.00   0.04  0.00  0.00  0.96  0.00  0.00  0.00  0.10  0.00
  HS02004881HS02006253    1.00   0.04  0.00  0.00  0.28  0.09  0.00  0.59  0.24  0.00
  YS02001793JiankangQianchi    1.00   0.00  0.00  0.00  0.98  0.02  0.00  0.00  0.21  0.00
  YS02001757CaochengTiaoxuchi    1.00   0.00  0.08  0.00  0.89  0.03  0.00  0.00  0.00  0.00
  WSF200WS02003060        1.00   0.00  0.08  0.00  0.22  0.70  0.00  0.00  0.31  0.00
  1                       1.00   0.00  0.00  0.00  0.00  1.00  0.00  0.00  0.28  0.00
  2                       1.00   1.00  0.00  0.00  0.00  0.00  0.00  0.00  0.00  0.00
  3                       1.00   0.47  0.00  0.00  0.00  0.53  0.00  0.00  0.30  0.00
  4                       1.00   1.00  0.00  0.00  0.00  0.00  0.00  0.00  0.00  0.00
  
  
  *************************
  Conduit Surcharge Summary
  *************************
  
  ----------------------------------------------------------------------------
                                                           Hours        Hours 
                         --------- Hours Full --------   Above Full   Capacity
  Conduit                Both Ends  Upstream  Dnstream   Normal Flow   Limited
  ----------------------------------------------------------------------------
  WS02006229WS02006228        1.23      1.26      1.23      1.63         1.23
  WS02006256WS02006235        4.86      4.86      6.66      2.84         0.01
  WS02006249WS02006248        0.01      0.01      0.01      1.03         0.01
  WS02006247WS02006245        0.01      0.01      0.01      2.15         0.01
  WS02006235WS02006234        0.01      0.01      0.01      4.60         0.01
  WS02006234WS02006232        0.01      0.01      0.27      0.01         0.01
  WS02006232WS02006231        0.01      0.01      0.27      0.01         0.01
  WS02006231WS02006230        0.01      0.01      0.01      5.07         0.01
  WS02006230WS02006229        1.36      1.45      1.36      5.74         1.35
  WS02006228WS02006109        1.25      1.31      1.25      2.82         1.25
  WS02006112WS02006115        0.01      0.01      0.56      0.01         0.01
  WS02006111WS02006112        0.01      0.01      1.72      0.01         0.01
  WS02006110WS02006113        0.01      0.01      1.28      0.01         0.01
  WS02006109WS02006110        0.17      0.17      1.31      0.18         0.01
  WS02004405WS02004406        0.01      0.01      0.01      0.38         0.01
  WS02004404WS02004405        0.01      0.01      0.01      5.44         0.01
  WS02003072WS02003073        0.01      0.01      0.01      1.20         0.01
  HS02004480HS02004478        0.01      0.01      0.01      0.41         0.01
  YS02001759YS02001757        6.15      6.15      6.19      0.01         0.01
  YS02001762YS02001759        6.15      6.15      6.15      0.01         0.01
  YS02001765YS02001762        6.13      6.13      6.15      0.01         0.01
  YS02001770YS02001767        6.13      6.13      6.13      0.36         0.75
  YS02001774YS02001770        6.11      6.11      6.14      0.01         0.01
  YS02001779YS02001774        5.95      5.95      6.14      0.01         0.01
  YS02001649YS02001757        6.15      6.15      6.19      0.01         0.01
  YS02001767YS02001765        6.13      6.13      6.13      0.01         0.01
  YS02006561YS02001783        0.62      0.62      1.64      0.01         0.01
  YS02001783YS02001784        1.64      1.64      1.70      1.27         1.25
  YS02001784YS02001785        1.64      1.70      1.64      2.23         1.63
  YS02001788YS02001790        1.63      1.63      4.68      0.01         0.01
  YS02001790YS02001791        4.68      4.68      5.12      0.01         0.04
  YS02001791YS02001793        5.12      5.12      5.79      0.01         0.01
  YS02001910YS02001907        1.23      1.23      1.70      0.01         0.01
  YS02001786YS02001788        1.63      1.64      1.63      1.84         1.63
  YS02001915YS02001910        0.93      0.93      1.23      0.01         0.01
  YS02001918YS02001915        0.01      0.01      0.93      0.01         0.01
  YS02001923YS02001920        0.01      0.01      0.27      0.01         0.01
  YS02001920YS02001918        0.01      0.01      0.27      0.01         0.01
  YS02001629YS02163301        6.10      6.10      6.11      0.01         0.01
  YS02001619YS02001622        5.82      5.82      5.86      0.01         0.01
  YS02001622YS02001625        5.86      5.86      6.09      0.01         0.01
  YS02001625YS02001629        5.84      5.84      6.09      0.01         0.01
  YS02163301YS02001633        6.11      6.11      6.12      0.01         0.01
  YS02163601YS02164001        6.12      6.12      6.15      0.01         0.01
  YS02164001YS02001641        6.12      6.12      6.13      0.01         0.03
  YS02001641YS02001644        6.13      6.13      6.13      1.36         1.36
  YS02001647YS02001649        6.08      6.08      6.15      0.01         0.01
  YS02006553YS02006556        1.48      1.48      1.79      0.01         0.01
  YS02006556YS02006558        1.60      1.60      1.84      0.01         0.01
  YS02001907YS02006553        2.25      2.25      2.42      0.01         0.01
  YS02006558YS02006561        1.08      1.43      1.08      2.10         1.08
  YS02001633YS02163601        6.12      6.12      6.15      0.01         0.01
  YS02001644YS02001647        6.08      6.08      6.13      0.01         0.01
  YS02001745YS02001748        0.01      0.01      5.64      0.01         0.01
  YS02001748YS02001751        5.71      5.71      5.81      0.01         0.01
  YS02001751YS02001754        5.81      5.81      5.96      0.01         0.01
  YS02001754YS02001757        6.07      6.07      6.19      0.01         0.01
  YS02001882YS02001884        0.95      0.95      1.00      0.01         0.01
  YS02001884YS02001887        1.09      1.09      1.12      0.01         0.01
  YS02001890YS02001895        0.89      0.89      1.25      0.01         0.01
  YS02001895YS02001898        0.86      0.86      0.89      0.01         0.01
  YS02001898YS02001901        0.91      0.91      1.08      0.01         0.01
  YS02001901YS02001904        1.04      1.04      1.08      0.01         0.01
  YS02001904YS02001907        1.04      1.04      1.80      0.01         0.01
  YS02001887YS02001890        1.17      1.17      1.20      0.01         0.01
  YS02001652YS02001649        6.09      6.09      6.15      0.01         0.01
  YS02001655YS02001652        5.85      5.85      6.05      0.01         0.01
  YS02001658YS02001655        5.67      5.67      5.85      0.01         0.01
  YS02001661YS02001658        0.15      0.15      5.67      0.01         0.01
  YS02001664YS02001661        0.01      0.01      0.85      0.01         0.01
  YS02001793JiankangQianchi        5.62      5.62      6.35      0.01         0.01
  YS02001757CaochengTiaoxuchi        5.52      5.52      6.19      0.01         0.01
  
  
  ***************
  Pumping Summary
  ***************
  
  ---------------------------------------------------------------------------------------------------------
                                                  Min       Avg       Max     Total     Power    % Time Off
                        Percent   Number of      Flow      Flow      Flow    Volume     Usage    Pump Curve
  Pump                 Utilized   Start-Ups       LPS       LPS       LPS  10^6 ltr     Kw-hr    Low   High
  ---------------------------------------------------------------------------------------------------------
  CC-Pump-1               23.41           5      0.00    123.45    200.00     0.720      0.73    0.0   13.6
  CC-Pump-2               29.77           6      0.00    123.81    200.00     0.960      0.61    0.0    0.0
  JK-Pump-1               27.67           4      0.00    192.55    300.00     1.349     10.08    0.0    0.0
  JK-Pump-2               31.91           5      0.00    179.08    300.00     1.440      5.57    0.0    0.0
  XR-Pump-1               70.21           7      0.00     60.70     95.00     1.197      5.28    0.0    0.0
  XR-Pump-2                0.00           0      0.00      0.00      0.00     0.000      0.00    0.0    0.0
  XR-Pump-3                4.25           1      0.00     54.02     94.96     0.057      0.25    0.0    0.0
  XR-Pump-4               27.67           5      0.00     57.03     95.00     0.428      2.69    0.0    0.0
  

  Analysis begun on:  Wed Jan  5 17:40:26 2022
  Analysis ended on:  Wed Jan  5 17:40:28 2022
  Total elapsed time: 00:00:02