
  EPA STORM WATER MANAGEMENT MODEL - VERSION 5.1 (Build 5.3.0.dev0)
  --------------------------------------------------------------

  WARNING 04: minimum elevation drop used for Conduit WS02004404WS02004405
  WARNING 03: negative offset ignored for Link YS02001904YS02001907
  
  *********************************************************
  NOTE: The summary statistics displayed in this report are
  based on results found at every computational time step,  
  not just on results from each reporting time step.
  *********************************************************
  
  ****************
  Analysis Options
  ****************
  Flow Units ............... LPS
  Process Models:
    Rainfall/Runoff ........ YES
    RDII ................... NO
    Snowmelt ............... NO
    Groundwater ............ NO
    Flow Routing ........... YES
    Ponding Allowed ........ NO
    Water Quality .......... YES
  Infiltration Method ...... HORTON
  Flow Routing Method ...... DYNWAVE
  Surcharge Method ......... EXTRAN
  Starting Date ............ 08/28/2015 08:00:00
  Ending Date .............. 08/28/2015 16:00:00
  Antecedent Dry Days ...... 8.0
  Report Time Step ......... 00:01:00
  Wet Time Step ............ 00:01:00
  Dry Time Step ............ 00:01:00
  Routing Time Step ........ 5.00 sec
  Variable Time Step ....... YES
  Maximum Trials ........... 8
  Number of Threads ........ 4
  Head Tolerance ........... 0.001500 m
  
  
  **************************        Volume         Depth
  Runoff Quantity Continuity     hectare-m            mm
  **************************     ---------       -------
  Total Precipitation ......         6.825        14.943
  Evaporation Loss .........         0.000         0.000
  Infiltration Loss ........         1.122         2.457
  Surface Runoff ...........         4.791        10.489
  Final Storage ............         0.913         2.000
  Continuity Error (%) .....        -0.016
  
  
  **************************           COD            SS            TN            TP         NH4-N
  Runoff Quality Continuity             kg            kg            kg            kg            kg
  **************************    ----------    ----------    ----------    ----------    ----------
  Initial Buildup ..........     41378.656     70582.865      1804.177       168.684      1032.807
  Surface Buildup ..........        27.893        56.270         2.446         0.221         1.407
  Wet Deposition ...........         0.000         0.000         0.000         0.000         0.000
  Sweeping Removal .........         0.000         0.000         0.000         0.000         0.000
  Infiltration Loss ........       113.554       217.618         2.165         0.153         1.034
  BMP Removal ..............         0.000         0.000         0.000         0.000         0.000
  Surface Runoff ...........      4590.394      8690.260        88.537         6.081        42.150
  Remaining Buildup ........     36700.912     61728.012      1715.886       162.669       991.015
  Continuity Error (%) .....         0.004         0.005         0.002         0.001         0.002
  
  
  **************************        Volume        Volume
  Flow Routing Continuity        hectare-m      10^6 ltr
  **************************     ---------     ---------
  Dry Weather Inflow .......         0.630         6.296
  Wet Weather Inflow .......         4.790        47.899
  Groundwater Inflow .......         0.000         0.000
  RDII Inflow ..............         0.000         0.000
  External Inflow ..........         0.105         1.045
  External Outflow .........         3.067        30.672
  Flooding Loss ............         2.454        24.543
  Evaporation Loss .........         0.000         0.000
  Exfiltration Loss ........         0.000         0.000
  Initial Stored Volume ....         0.076         0.761
  Final Stored Volume ......         0.479         4.789
  Continuity Error (%) .....        -7.150
  
  
  **************************           COD            SS            TN            TP         NH4-N
  Quality Routing Continuity            kg            kg            kg            kg            kg
  **************************    ----------    ----------    ----------    ----------    ----------
  Dry Weather Inflow .......      1573.993      2518.389       151.103        18.888        94.440
  Wet Weather Inflow .......      4590.031      8689.739        88.528         6.080        42.146
  Groundwater Inflow .......         0.000         0.000         0.000         0.000         0.000
  RDII Inflow ..............         0.000         0.000         0.000         0.000         0.000
  External Inflow ..........       187.321       299.713        17.983         2.248        11.239
  External Outflow .........      3007.530      5386.206       149.761        16.730        88.292
  Flooding Loss ............      2418.605      4557.822        63.751         5.693        33.758
  Exfiltration Loss ........         0.000         0.000         0.000         0.000         0.000
  Mass Reacted .............         0.000         0.000         0.000         0.000         0.000
  Initial Stored Mass ......         0.000         0.000         0.000         0.000         0.000
  Final Stored Mass ........       396.325       673.167        19.323         2.107        11.305
  Continuity Error (%) .....         8.327         7.739         9.619         9.867         9.789
  
  
  *************************
  Highest Continuity Errors
  *************************
  Node JK-storage (-30.90%)
  Node HS02004842 (12.17%)
  Node YS02001884 (9.15%)
  Node WS02003059 (5.36%)
  Node HS02004817 (2.32%)
  
  
  ***************************
  Time-Step Critical Elements
  ***************************
  Link YS02001793JiankangQianchi (54.88%)
  Link WS02006280WS02006229 (24.46%)
  Link YS02006556YS02006558 (4.75%)
  Link WS02006252WS02006251 (1.90%)
  Link YS02006558YS02006561 (1.54%)
  
  
  ********************************
  Highest Flow Instability Indexes
  ********************************
  Link WS02006252WS02006251 (61)
  Link YS02163601YS02164001 (55)
  Link YS02001619YS02001622 (54)
  Link YS02163301YS02001633 (52)
  Link YS02001629YS02163301 (52)
  
  
  *************************
  Routing Time Step Summary
  *************************
  Minimum Time Step           :     0.49 sec
  Average Time Step           :     2.08 sec
  Maximum Time Step           :     5.00 sec
  Percent in Steady State     :    -0.00
  Average Iterations per Step :     5.35
  Percent Not Converging      :    36.25
  
  
  ***************************
  Subcatchment Runoff Summary
  ***************************
  
  ------------------------------------------------------------------------------------------------------------------------------
                            Total      Total      Total      Total     Imperv       Perv      Total       Total     Peak  Runoff
                           Precip      Runon       Evap      Infil     Runoff     Runoff     Runoff      Runoff   Runoff   Coeff
  Subcatchment                 mm         mm         mm         mm         mm         mm         mm    10^6 ltr      LPS
  ------------------------------------------------------------------------------------------------------------------------------
  sub0                      14.94       0.00       0.00       0.67      13.85       0.38      14.23        0.01     2.95   0.952
  sub1                      14.94       0.00       0.00       1.13      13.21       0.51      13.72        0.09    20.77   0.918
  sub2                      14.94       0.00       0.00       4.59       9.33       0.94      10.27        0.10    20.13   0.687
  sub3                      14.94       0.00       0.00       4.76       9.30       0.77      10.07        0.23    45.01   0.674
  sub4                      14.94       0.00       0.00       1.24      13.06       0.41      13.46        0.28    53.61   0.901
  sub5                      14.94       0.00       0.00       0.70      13.80       0.35      14.15        0.16    36.52   0.947
  sub7                      14.94       0.00       0.00       0.89      13.54       0.46      14.00        0.05    11.42   0.937
  sub8                      14.94       0.00       0.00       0.90      13.53       0.45      13.98        0.09    21.17   0.935
  sub9                      14.94       0.00       0.00       0.90      13.53       0.45      13.97        0.07    15.85   0.935
  sub10                     14.94       0.00       0.00       0.80      13.66       0.40      14.06        0.16    35.75   0.941
  sub11                     14.94       0.00       0.00       0.79      13.68       0.41      14.09        0.16    39.05   0.943
  sub12                     14.94       0.00       0.00       1.28      12.95       0.66      13.61        0.12    29.95   0.911
  sub14                     14.94       0.00       0.00       0.90      13.52       0.45      13.97        0.13    31.23   0.935
  sub15                     14.94       0.00       0.00       3.42      10.40       1.06      11.46        0.20    44.55   0.767
  sub16                     14.94       0.00       0.00       3.60       9.97       1.33      11.31        0.12    28.40   0.757
  sub17                     14.94       0.00       0.00       3.50      10.12       1.28      11.40        0.10    23.29   0.763
  sub22                     14.94       0.00       0.00       5.08       8.48       1.34       9.82        0.62   139.97   0.657
  sub23                     14.94       0.00       0.00       4.23       9.37       1.30      10.67        0.51   117.35   0.714
  sub60                     14.94       0.00       0.00       1.62      11.28       0.17      11.45        3.47   388.02   0.766
  sub61                     14.94       0.00       0.00       2.30      11.28       0.24      11.52        3.55   453.50   0.771
  sub62                     14.94       0.00       0.00       1.01      12.32       0.18      12.50        3.84   470.76   0.836
  sub63                     14.94       0.00       0.00       4.06       9.82       0.27      10.09        3.06   411.73   0.675
  sub64                     14.94       0.00       0.00       2.07      10.84       0.17      11.01        3.35   371.05   0.737
  sub65                     14.94       0.00       0.00       1.78      11.03       0.16      11.20        3.44   378.16   0.749
  sub66                     14.94       0.00       0.00       4.15       9.25       0.18       9.43        2.89   333.79   0.631
  sub67                     14.94       0.00       0.00       0.97      12.84       0.22      13.06        4.03   561.93   0.874
  sub68                     14.94       0.00       0.00       1.84      11.82       0.25      12.07        3.71   490.90   0.808
  sub69                     14.94       0.00       0.00       1.91      12.12       0.34      12.45        2.91   446.51   0.833
  sub70                     14.94      12.71       0.00       7.96      16.76       1.44      18.19        4.16   492.54   0.658
  sub71                     14.94       0.00       0.00       1.03      12.07       0.17      12.23        2.89   337.39   0.819
  sub72                     14.94       0.00       0.00       0.95      10.05       0.09      10.14        2.07   188.28   0.679
  1                         14.94      17.71       0.00       1.40      19.41       5.94      25.35        5.96   536.12   0.776
  2                         14.94       0.00       0.00       3.09       3.60       2.57       6.17        2.47   275.68   0.413
  
  
  ****************************
  Subcatchment Washoff Summary
  ****************************
  
  ------------------------------------------------------------------------------------------
                                 COD            SS            TN            TP         NH4-N
  Subcatchment                    kg            kg            kg            kg            kg
  ------------------------------------------------------------------------------------------
  sub0                         3.040         5.916         0.053         0.004         0.026
  sub1                        13.146        26.365         0.247         0.017         0.119
  sub2                         8.395        16.447         0.176         0.012         0.081
  sub3                        20.646        40.146         0.424         0.029         0.196
  sub4                        30.501        61.984         0.602         0.037         0.289
  sub5                        30.052        59.367         0.540         0.041         0.262
  sub7                         6.636        13.478         0.126         0.008         0.061
  sub8                         9.925        20.639         0.198         0.012         0.095
  sub9                         8.521        17.469         0.165         0.011         0.079
  sub10                       24.673        49.373         0.455         0.033         0.220
  sub11                       23.887        48.310         0.449         0.031         0.217
  sub12                       20.389        40.430         0.372         0.028         0.180
  sub14                       18.254        37.070         0.347         0.023         0.167
  sub15                       24.292        47.502         0.467         0.034         0.220
  sub16                       15.652        30.524         0.298         0.022         0.140
  sub17                       14.380        27.794         0.267         0.021         0.126
  sub22                       76.738       147.365         1.455         0.110         0.682
  sub23                       44.233        87.867         0.933         0.062         0.430
  sub60                      294.453       558.636         5.833         0.362         2.799
  sub61                      365.115       689.683         6.795         0.469         3.275
  sub62                      376.512       722.944         7.328         0.469         3.523
  sub63                      270.931       504.389         5.392         0.382         2.510
  sub64                      372.397       681.763         6.849         0.502         3.276
  sub65                      380.813       699.947         7.047         0.507         3.376
  sub66                      214.094       395.345         4.358         0.287         2.041
  sub67                      558.701      1062.068        10.059         0.745         4.869
  sub68                      399.700       762.247         7.630         0.520         3.652
  sub69                      358.315       690.112         6.718         0.476         3.219
  sub70                      621.492      1200.679        12.412         0.871         5.841
  sub71                      248.166       480.867         5.069         0.297         2.428
  sub72                      203.274       366.415         3.790         0.261         1.825
  1                          459.591       892.781         9.329         0.655         4.348
  2                           53.287        95.129         1.490         0.090         0.637
  ------------------------------------------------------------------------------------------
  System                    5570.200     10581.052       107.667         7.427        51.210
  
  
  ******************
  Node Depth Summary
  ******************
  
  ---------------------------------------------------------------------------------
                                 Average  Maximum  Maximum  Time of Max    Reported
                                   Depth    Depth      HGL   Occurrence   Max Depth
  Node                 Type       Meters   Meters   Meters  days hr:min      Meters
  ---------------------------------------------------------------------------------
  WS02001211           JUNCTION     0.32     0.35     5.19     0  02:21        0.35
  WS02001212           JUNCTION     0.09     0.15     5.21     0  02:20        0.15
  WS02001213           JUNCTION     0.35     0.50     5.26     0  02:20        0.50
  WS02003069           JUNCTION     0.20     0.37     4.95     0  02:20        0.37
  WS02003072           JUNCTION     0.26     0.44     4.81     0  02:21        0.44
  WS02003073           JUNCTION     0.14     0.26     4.32     0  02:21        0.26
  WS02003060           JUNCTION     0.18     0.33     5.26     0  02:19        0.33
  WS02003066           JUNCTION     0.16     0.28     5.83     0  02:18        0.28
  WS02003059           JUNCTION     0.43     0.58     5.26     0  02:19        0.58
  WS02003067           JUNCTION     0.41     0.67     5.99     0  02:18        0.67
  WS02004401           JUNCTION     0.49     0.81     6.81     0  02:14        0.81
  WS02004402           JUNCTION     0.52     0.84     6.80     0  02:14        0.84
  WS02004403           JUNCTION     0.55     0.86     6.79     0  02:14        0.86
  WS02004404           JUNCTION     0.62     0.95     6.80     0  02:13        0.94
  WS02004406           JUNCTION     0.63     0.92     6.75     0  02:13        0.92
  WS02004409           JUNCTION     0.30     0.62     6.39     0  02:17        0.62
  WS02004410           JUNCTION     0.32     0.63     6.35     0  02:17        0.63
  WS02004411           JUNCTION     0.34     0.64     6.32     0  02:18        0.64
  WS02004412           JUNCTION     0.37     0.66     6.30     0  02:18        0.66
  WS02004413           JUNCTION     0.51     0.82     6.29     0  02:18        0.82
  WS02004405           JUNCTION     0.62     0.92     6.77     0  02:13        0.92
  WS02006109           JUNCTION     0.54     0.87     7.49     0  02:11        0.87
  WS02006110           JUNCTION     0.56     0.85     7.44     0  02:11        0.85
  WS02006111           JUNCTION     0.14     0.26     6.97     0  02:10        0.26
  WS02006112           JUNCTION     0.64     0.99     6.88     0  02:14        0.99
  WS02006113           JUNCTION     0.21     0.41     7.30     0  02:12        0.41
  WS02006115           JUNCTION     0.38     0.71     6.85     0  02:15        0.71
  WS02006116           JUNCTION     0.46     0.79     6.83     0  02:15        0.79
  WS02006230           JUNCTION     0.44     0.82     7.56     0  02:11        0.82
  WS02006231           JUNCTION     0.21     0.42     7.54     0  02:11        0.42
  WS02006232           JUNCTION     0.30     0.50     7.54     0  02:11        0.50
  WS02006234           JUNCTION     0.19     0.35     7.50     0  02:12        0.35
  WS02006235           JUNCTION     0.20     0.29     7.45     0  02:12        0.29
  WS02006238           JUNCTION     0.23     0.32     7.46     0  02:12        0.32
  WS02006240           JUNCTION     0.19     0.25     7.55     0  02:13        0.25
  WS02006242           JUNCTION     0.26     0.33     7.60     0  02:13        0.33
  WS02006243           JUNCTION     0.17     0.22     7.64     0  02:12        0.22
  WS02006245           JUNCTION     0.19     0.24     7.73     0  02:11        0.24
  WS02006247           JUNCTION     0.22     0.27     7.77     0  02:11        0.27
  WS02006248           JUNCTION     0.17     0.22     7.81     0  02:10        0.22
  WS02006249           JUNCTION     0.22     0.27     7.87     0  02:10        0.27
  WS02006239           JUNCTION     0.21     0.28     7.49     0  02:13        0.28
  WS02006251           JUNCTION     0.20     0.25     7.92     0  02:09        0.25
  WS02006252           JUNCTION     0.52     0.59     8.84     0  05:11        0.59
  WS02006253           JUNCTION     0.24     0.34     7.99     0  02:09        0.34
  WS02006256           JUNCTION     2.11     2.35     9.28     0  00:00        2.35
  WS02004138           JUNCTION     0.19     0.20     7.45     0  00:00        0.19
  WS02004139           JUNCTION     0.24     0.26     5.17     0  02:22        0.26
  WS02004407           JUNCTION     0.14     0.28     6.59     0  02:16        0.28
  WS02006228           JUNCTION     0.52     0.89     7.54     0  02:11        0.89
  WS02006229           JUNCTION     0.49     0.87     7.57     0  02:11        0.87
  WS02006280           JUNCTION     0.09     0.24     8.51     0  02:10        0.24
  WS02006284           JUNCTION     0.39     0.61     9.01     0  02:10        0.61
  WS02006287           JUNCTION     0.13     0.35     9.31     0  02:10        0.35
  WSF200               JUNCTION     0.13     0.27     5.50     0  02:18        0.27
  HS02004901           JUNCTION     0.15     0.34    10.16     0  02:08        0.34
  HS02004881           JUNCTION     0.01     0.05     9.08     0  02:09        0.05
  HS02004876           JUNCTION     0.06     0.15     9.18     0  02:09        0.15
  HS02004870           JUNCTION     0.02     0.08     9.37     0  02:09        0.08
  HS02004862           JUNCTION     0.03     0.10     9.48     0  02:10        0.10
  HS02004856           JUNCTION     0.08     0.14     9.57     0  02:10        0.14
  HS02004852           JUNCTION     0.02     0.06     9.58     0  02:10        0.06
  HS02004848           JUNCTION     0.02     0.06     9.66     0  02:10        0.06
  HS02004842           JUNCTION     0.34     0.39     9.66     0  02:10        0.39
  HS02004837           JUNCTION     0.04     0.08     9.66     0  02:10        0.08
  HS02004830           JUNCTION     0.05     0.10     9.56     0  02:10        0.10
  HS02004824           JUNCTION     0.03     0.10     9.50     0  02:10        0.10
  HS02004817           JUNCTION     0.46     0.66     9.51     0  02:10        0.66
  HS02004807           JUNCTION     0.15     0.33     9.50     0  02:10        0.33
  HS02004802           JUNCTION     0.18     0.36     9.49     0  02:11        0.36
  HS02004799           JUNCTION     0.16     0.42     9.63     0  02:09        0.42
  HS02004792           JUNCTION     0.05     0.19     9.71     0  02:08        0.19
  HS02004788           JUNCTION     0.04     0.14    10.04     0  02:09        0.14
  HS02004785           JUNCTION     0.07     0.22    10.12     0  02:09        0.22
  HS02004777           JUNCTION     0.17     0.36    10.15     0  02:08        0.36
  HS02004770           JUNCTION     0.14     0.33    10.16     0  02:08        0.33
  HS02004480           JUNCTION     0.11     0.34     9.58     0  02:09        0.34
  HS02004479           JUNCTION     0.15     0.38     9.58     0  02:09        0.38
  HS02004478           JUNCTION     0.08     0.24     9.47     0  02:10        0.24
  YS02001745           JUNCTION     0.67     0.91     8.43     0  02:59        0.91
  YS02001748           JUNCTION     1.04     1.36     8.43     0  02:54        1.35
  YS02001751           JUNCTION     1.21     1.55     8.43     0  02:57        1.54
  YS02001754           JUNCTION     1.46     1.82     8.42     0  02:49        1.81
  YS02001762           JUNCTION     1.66     2.05     8.45     0  03:53        2.01
  YS02001765           JUNCTION     1.61     1.99     8.44     0  03:53        1.96
  YS02001767           JUNCTION     1.57     1.94     8.43     0  03:53        1.92
  YS02001770           JUNCTION     1.57     1.92     8.42     0  02:26        1.91
  YS02001774           JUNCTION     1.64     1.98     8.40     0  02:26        1.97
  YS02001779           JUNCTION     1.39     1.68     8.37     0  02:07        1.68
  YS02001882           JUNCTION     0.66     1.63     8.35     0  02:11        1.62
  YS02001884           JUNCTION     0.75     1.73     8.35     0  02:39        1.73
  YS02001759           JUNCTION     1.69     2.08     8.44     0  03:53        2.05
  YS02001887           JUNCTION     0.83     1.81     8.34     0  02:30        1.80
  YS02001890           JUNCTION     0.86     1.81     8.32     0  02:11        1.81
  YS02001898           JUNCTION     0.63     1.57     8.30     0  02:11        1.56
  YS02001901           JUNCTION     0.74     1.68     8.29     0  02:19        1.67
  YS02001904           JUNCTION     0.72     1.64     8.27     0  03:01        1.63
  YS02001907           JUNCTION     1.04     1.96     8.25     0  02:11        1.96
  YS02001910           JUNCTION     0.84     1.79     8.29     0  02:12        1.78
  YS02001915           JUNCTION     0.64     1.60     8.32     0  02:12        1.58
  YS02001918           JUNCTION     0.38     1.29     8.35     0  02:12        1.26
  YS02001619           JUNCTION     1.19     1.49     8.42     0  02:02        1.48
  YS02001629           JUNCTION     1.53     1.85     8.40     0  02:09        1.84
  YS02001641           JUNCTION     1.62     1.94     8.38     0  02:09        1.93
  YS02001644           JUNCTION     1.62     1.92     8.35     0  02:05        1.92
  YS02001652           JUNCTION     1.47     2.02     8.62     0  02:27        1.87
  YS02001655           JUNCTION     1.24     1.94     8.79     0  02:27        1.65
  YS02001920           JUNCTION     0.48     1.37     8.38     0  02:12        1.34
  YS02001923           JUNCTION     0.31     1.13     8.39     0  02:12        1.10
  YS02001926           JUNCTION     0.34     0.96     8.40     0  02:12        0.92
  YS02001929           JUNCTION     0.21     0.71     8.40     0  02:12        0.70
  YS02001658           JUNCTION     0.99     1.83     8.98     0  02:27        1.41
  YS02001661           JUNCTION     0.77     1.71     9.11     0  02:27        1.19
  YS02001664           JUNCTION     0.33     0.57     8.49     0  04:04        0.56
  YS02001622           JUNCTION     1.21     1.51     8.41     0  02:02        1.50
  YS02001633           JUNCTION     1.62     1.95     8.40     0  02:07        1.94
  YS02001649           JUNCTION     1.66     2.05     8.44     0  02:20        2.03
  YS02001757           JUNCTION     1.78     2.17     8.43     0  03:53        2.15
  YS02001895           JUNCTION     0.62     1.57     8.31     0  02:24        1.56
  YS02001625           JUNCTION     1.48     1.78     8.38     0  02:02        1.78
  YS02163301           JUNCTION     1.56     1.88     8.40     0  02:10        1.88
  YS02163601           JUNCTION     1.67     1.99     8.39     0  02:09        1.98
  YS02164001           JUNCTION     1.60     1.92     8.38     0  02:09        1.92
  YS02001647           JUNCTION     1.46     1.80     8.41     0  02:20        1.78
  YSB1154              JUNCTION     0.29     0.53     9.58     0  02:09        0.53
  YSB6556              JUNCTION     0.18     0.41     9.58     0  02:09        0.41
  YSB1174              JUNCTION     0.24     0.47     9.58     0  02:09        0.47
  YSB1171              JUNCTION     0.44     0.68     9.58     0  02:09        0.68
  YS02006553           JUNCTION     1.04     1.97     8.26     0  02:45        1.96
  YS02006561           JUNCTION     0.36     1.07     7.73     0  02:59        1.06
  YS02006556           JUNCTION     1.01     1.95     8.26     0  02:45        1.92
  YS02006558           JUNCTION     1.05     1.99     8.26     0  02:45        1.96
  YS02001783           JUNCTION     0.57     1.45     7.59     0  02:59        1.44
  YS02001784           JUNCTION     0.57     1.39     7.46     0  03:01        1.38
  YS02001786           JUNCTION     0.48     1.23     7.26     0  03:04        1.22
  YS02001788           JUNCTION     0.37     1.09     7.07     0  02:59        1.09
  YS02001790           JUNCTION     0.44     1.25     6.89     0  03:02        1.24
  YS02001791           JUNCTION     0.33     1.22     6.69     0  03:00        1.22
  YS02001793           JUNCTION     0.34     1.75     6.58     0  03:05        1.74
  WSC                  OUTFALL      0.14     0.26     0.93     0  02:22        0.26
  3                    OUTFALL      0.00     0.00     7.16     0  00:00        0.00
  4                    OUTFALL      0.00     0.00     7.67     0  00:00        0.00
  5                    OUTFALL      0.00     0.00     4.91     0  00:00        0.00
  JK-storage           STORAGE      1.17     5.74     6.54     0  03:01        5.74
  CC-storage           STORAGE      0.99     1.37     8.37     0  03:06        1.37
  XR-storage           STORAGE      5.93     7.72     5.72     0  02:34        7.72
  
  
  *******************
  Node Inflow Summary
  *******************
  
  -------------------------------------------------------------------------------------------------
                                  Maximum  Maximum                  Lateral       Total        Flow
                                  Lateral    Total  Time of Max      Inflow      Inflow     Balance
                                   Inflow   Inflow   Occurrence      Volume      Volume       Error
  Node                 Type           LPS      LPS  days hr:min    10^6 ltr    10^6 ltr     Percent
  -------------------------------------------------------------------------------------------------
  WS02001211           JUNCTION      7.35    67.81     0  02:20       0.212       0.442       2.240
  WS02001212           JUNCTION      0.00    60.53     0  02:20           0       0.325       0.725
  WS02001213           JUNCTION      0.00    60.66     0  02:19           0       0.328       2.929
  WS02003069           JUNCTION      0.32   422.00     0  02:19     0.00922        3.69       0.181
  WS02003072           JUNCTION      0.00   421.98     0  02:20           0        3.68       0.285
  WS02003073           JUNCTION      1.82   423.77     0  02:21      0.0524        3.73       0.252
  WS02003060           JUNCTION     16.53   482.57     0  02:18       0.476        3.93       0.162
  WS02003066           JUNCTION      0.00   466.04     0  02:18           0        3.36       0.058
  WS02003059           JUNCTION      0.00    84.67     0  01:47           0       0.346       5.662
  WS02003067           JUNCTION      0.00   466.02     0  02:18           0        3.36       0.148
  WS02004401           JUNCTION      0.00   469.07     0  02:13           0        3.49       0.348
  WS02004402           JUNCTION      0.00   469.22     0  02:12           0        3.47       0.348
  WS02004403           JUNCTION      0.00   469.70     0  02:13           0        3.46       0.334
  WS02004404           JUNCTION      0.16   480.61     0  02:13     0.00467        3.46       0.253
  WS02004406           JUNCTION      0.00   471.32     0  02:13           0        3.43       0.665
  WS02004409           JUNCTION      0.00   467.78     0  02:16           0        3.41       0.141
  WS02004410           JUNCTION      0.00   467.09     0  02:16           0         3.4       0.196
  WS02004411           JUNCTION      0.00   466.53     0  02:17           0         3.4       0.228
  WS02004412           JUNCTION      0.00   466.36     0  02:17           0        3.39       0.286
  WS02004413           JUNCTION      0.00   466.12     0  02:17           0        3.38       0.489
  WS02004405           JUNCTION      0.04   521.17     0  02:13      0.0011        3.45       0.401
  WS02006109           JUNCTION      1.23   448.95     0  02:11      0.0354        3.45       0.357
  WS02006110           JUNCTION      0.00   448.95     0  02:11           0        3.44       0.325
  WS02006111           JUNCTION      0.00   461.37     0  02:13           0        3.43       0.040
  WS02006112           JUNCTION     23.29   473.35     0  02:10      0.0978        3.52       0.471
  WS02006113           JUNCTION      0.00   449.16     0  02:11           0        3.43       0.085
  WS02006115           JUNCTION      0.00   470.67     0  02:11           0         3.5       0.301
  WS02006116           JUNCTION      0.00   469.78     0  02:12           0        3.49       0.218
  WS02006230           JUNCTION     10.28   134.51     0  02:10       0.296         1.2       0.491
  WS02006231           JUNCTION      0.00   134.25     0  02:11           0       0.944       0.227
  WS02006232           JUNCTION      0.00   134.02     0  02:11           0       0.948       0.596
  WS02006234           JUNCTION      0.00   133.95     0  02:11           0       0.949       0.118
  WS02006235           JUNCTION      0.00   510.75     0  02:12           0        8.37       0.041
  WS02006238           JUNCTION      0.00    94.19     0  02:15           0        1.66       0.166
  WS02006240           JUNCTION      0.00    94.11     0  02:13           0        1.66       0.232
  WS02006242           JUNCTION      0.00    94.17     0  02:12           0        1.66       0.349
  WS02006243           JUNCTION      0.00    94.22     0  02:11           0        1.67       0.136
  WS02006245           JUNCTION      0.00    94.24     0  02:11           0        1.67       0.246
  WS02006247           JUNCTION      0.00    94.26     0  02:10           0        1.67       0.210
  WS02006248           JUNCTION      0.00    94.27     0  02:10           0        1.67       0.085
  WS02006249           JUNCTION      0.00    94.32     0  02:10           0        1.68       0.320
  WS02006239           JUNCTION      0.00    94.11     0  02:14           0        1.66       0.203
  WS02006251           JUNCTION      0.08   522.05     0  02:09     0.00222         9.7       0.032
  WS02006252           JUNCTION      0.00   400.00     0  01:40           0        9.16       0.005
  WS02006253           JUNCTION      2.95   121.37     0  02:09      0.0115       0.538       0.522
  WS02006256           JUNCTION      0.00   983.00     0  00:00           0        14.9      -0.009
  WS02004138           JUNCTION      0.00   380.00     0  00:00           0        10.9       0.058
  WS02004139           JUNCTION      0.32   448.12     0  02:21     0.00924        11.3       0.078
  WS02004407           JUNCTION      0.00   467.90     0  02:15           0        3.41       0.067
  WS02006228           JUNCTION      0.00   447.72     0  02:11           0        3.42       0.238
  WS02006229           JUNCTION      0.00   571.84     0  02:10           0        3.67       0.247
  WS02006280           JUNCTION      0.00   571.83     0  02:10           0        2.75       0.002
  WS02006284           JUNCTION      0.10   571.76     0  02:10     0.00275        2.75       0.024
  WS02006287           JUNCTION      0.00   571.58     0  02:10           0        2.75       0.026
  WSF200               JUNCTION      0.00   466.03     0  02:18           0        3.36       0.033
  HS02004901           JUNCTION     28.40    28.40     0  02:06       0.118       0.119       1.504
  HS02004881           JUNCTION     11.42   118.67     0  02:09      0.0472       0.527       0.012
  HS02004876           JUNCTION     20.77   107.66     0  02:09      0.0912        0.48       0.112
  HS02004870           JUNCTION     21.17    87.10     0  02:09      0.0893       0.389       0.027
  HS02004862           JUNCTION     20.33    66.55     0  02:10       0.101         0.3       0.057
  HS02004856           JUNCTION     15.85    46.26     0  02:09      0.0672         0.2       0.724
  HS02004852           JUNCTION      0.00    30.83     0  02:10           0       0.133       0.041
  HS02004848           JUNCTION     45.01    45.01     0  02:12       0.227       0.227       0.019
  HS02004842           JUNCTION      0.00    15.12     0  02:21           0       0.107      13.855
  HS02004837           JUNCTION     42.10    55.58     0  02:09       0.338       0.432       0.188
  HS02004830           JUNCTION      0.15    55.71     0  02:10     0.00432       0.422       0.293
  HS02004824           JUNCTION     53.66   109.16     0  02:11       0.282       0.703       0.076
  HS02004817           JUNCTION      0.60   110.33     0  02:13      0.0173        0.72       2.370
  HS02004807           JUNCTION     39.05   147.20     0  02:12       0.164       0.868       0.504
  HS02004802           JUNCTION      0.00   147.68     0  02:12           0       0.866       0.458
  HS02004799           JUNCTION     31.23   361.12     0  02:08       0.133        1.63       0.172
  HS02004792           JUNCTION    140.25   330.29     0  02:08       0.628         1.5       0.027
  HS02004788           JUNCTION     46.22   190.88     0  02:09       0.245       0.868       0.045
  HS02004785           JUNCTION      0.15   144.86     0  02:08     0.00432       0.624       0.078
  HS02004777           JUNCTION      0.03   144.89     0  02:07    0.000864       0.624       0.838
  HS02004770           JUNCTION    117.35   145.35     0  02:07       0.509       0.626       0.495
  HS02004480           JUNCTION      0.00   425.80     0  02:09           0         1.9       0.056
  HS02004479           JUNCTION      0.00    64.80     0  02:08           0       0.288       0.254
  HS02004478           JUNCTION      0.00   571.55     0  02:10           0        2.75       0.012
  YS02001745           JUNCTION    388.02   388.02     0  02:47        3.47        3.47       0.178
  YS02001748           JUNCTION      0.04   397.87     0  02:42      0.0013        3.46       0.552
  YS02001751           JUNCTION      0.01   397.42     0  02:45    0.000317        3.45       0.676
  YS02001754           JUNCTION      0.26   397.69     0  02:47     0.00749        3.43       0.708
  YS02001762           JUNCTION      0.00   426.59     0  02:16           0        2.17       0.966
  YS02001765           JUNCTION      0.00   426.22     0  02:16           0        2.17       1.110
  YS02001767           JUNCTION      0.54   425.69     0  02:16      0.0154         2.2       1.621
  YS02001770           JUNCTION    470.91   553.45     0  03:01        3.85        4.03       0.755
  YS02001774           JUNCTION      0.00   555.07     0  03:01           0           2       1.245
  YS02001779           JUNCTION      0.01   554.01     0  03:01    0.000144        1.96       0.753
  YS02001882           JUNCTION      0.00    32.08     0  02:05           0        0.03       7.759
  YS02001884           JUNCTION      0.00    38.72     0  02:04           0      0.0671      10.072
  YS02001759           JUNCTION    453.54   841.23     0  02:16        3.55        5.52       0.403
  YS02001887           JUNCTION    562.38   563.23     0  02:29        4.04        4.07       0.203
  YS02001890           JUNCTION      0.00   563.33     0  02:28           0        4.03       0.228
  YS02001898           JUNCTION      0.00   518.19     0  02:19           0        3.94       0.071
  YS02001901           JUNCTION      0.00   518.22     0  02:30           0        3.94       0.181
  YS02001904           JUNCTION      0.00   518.01     0  02:30           0        3.94       0.154
  YS02001907           JUNCTION      0.00  1047.28     0  02:13           0        8.95       0.265
  YS02001910           JUNCTION      0.00   535.69     0  02:13           0        5.02       0.230
  YS02001915           JUNCTION    337.41   535.14     0  02:13        2.89        5.05       0.121
  YS02001918           JUNCTION      0.00   255.35     0  02:13           0        2.18       0.091
  YS02001619           JUNCTION    333.79   333.79     0  02:45        2.89        2.89       0.405
  YS02001629           JUNCTION      0.00   217.55     0  02:04           0        1.49       1.887
  YS02001641           JUNCTION      0.00   454.35     0  02:04           0        4.84       0.422
  YS02001644           JUNCTION    371.09  1345.18     0  03:01        3.35        10.5       0.240
  YS02001652           JUNCTION      0.00   453.96     0  02:20           0        3.05       0.738
  YS02001655           JUNCTION      0.15   453.00     0  02:23     0.00443        3.07       0.810
  YS02001920           JUNCTION      2.87   254.53     0  02:13      0.0827        2.16       0.143
  YS02001923           JUNCTION      0.04   253.05     0  02:12     0.00109        2.07       0.051
  YS02001926           JUNCTION      0.05   189.31     0  03:00      0.0015        2.07       0.151
  YS02001929           JUNCTION    188.28   188.28     0  03:01        2.07        2.07       0.029
  YS02001658           JUNCTION      0.00   496.73     0  02:24           0        3.09       0.701
  YS02001661           JUNCTION      0.00   754.73     0  02:20           0        3.35      -1.076
  YS02001664           JUNCTION    411.73   411.73     0  02:32        3.06        3.35       0.088
  YS02001622           JUNCTION      0.00   334.48     0  02:44           0        2.88       1.095
  YS02001633           JUNCTION    378.36   453.84     0  02:04        3.45         4.9       0.653
  YS02001649           JUNCTION      0.00  1027.69     0  02:10           0        6.35       0.577
  YS02001757           JUNCTION      0.00  2118.33     0  02:15           0        12.7       0.726
  YS02001895           JUNCTION      0.00   518.37     0  02:30           0        3.95       0.131
  YS02001625           JUNCTION      0.00   334.39     0  02:46           0        2.85       1.362
  YS02163301           JUNCTION      0.00   218.17     0  02:04           0        1.48       1.613
  YS02163601           JUNCTION      0.11   454.13     0  02:04     0.00317        4.85       0.611
  YS02164001           JUNCTION      0.00   454.20     0  02:04           0        4.83       0.397
  YS02001647           JUNCTION      0.00   686.70     0  02:04           0        4.94       0.559
  YSB1154              JUNCTION     36.52    36.52     0  02:07        0.16       0.161       0.904
  YSB6556              JUNCTION      0.00    36.33     0  02:08           0       0.162       0.779
  YSB1174              JUNCTION     29.95    29.95     0  02:05       0.119       0.119       1.085
  YSB1171              JUNCTION      0.00    64.98     0  02:08           0       0.287       2.259
  YS02006553           JUNCTION      0.00   712.91     0  03:35           0        7.53       0.209
  YS02006561           JUNCTION      0.00  1145.67     0  02:42           0        11.2       0.008
  YS02006556           JUNCTION      0.00   712.07     0  03:35           0        7.53       0.140
  YS02006558           JUNCTION    491.78  1146.92     0  02:42        3.74        11.2       0.046
  YS02001783           JUNCTION      0.00  1146.04     0  02:42           0        11.2       0.021
  YS02001784           JUNCTION      1.06  1146.99     0  02:42      0.0305        11.2       0.033
  YS02001786           JUNCTION      0.06  1146.86     0  02:42     0.00162        11.2       0.032
  YS02001788           JUNCTION      0.07  1146.80     0  02:42     0.00204        11.2       0.019
  YS02001790           JUNCTION      0.15  1159.70     0  02:19     0.00446        11.2       0.025
  YS02001791           JUNCTION      0.00  1274.84     0  02:32           0        11.2       0.001
  YS02001793           JUNCTION      0.00  1224.84     0  02:34           0        11.2       0.002
  WSC                  OUTFALL       0.00   423.66     0  02:22           0        3.72       0.000
  3                    OUTFALL       0.00   510.75     0  02:12           0        7.69       0.000
  4                    OUTFALL       0.00   427.27     0  02:09           0        8.02       0.000
  5                    OUTFALL       0.00   448.11     0  02:22           0        11.3       0.000
  JK-storage           STORAGE       0.00  1217.61     0  02:18           0        11.4     -23.604
  CC-storage           STORAGE       0.00  2118.47     0  02:14           0        11.8      -0.042
  XR-storage           STORAGE     976.60   976.60     0  03:01        14.2        14.8      -2.503
  
  
  **********************
  Node Surcharge Summary
  **********************
  
  Surcharging occurs when water rises above the top of the highest conduit.
  ---------------------------------------------------------------------
                                               Max. Height   Min. Depth
                                   Hours       Above Crown    Below Rim
  Node                 Type      Surcharged         Meters       Meters
  ---------------------------------------------------------------------
  WS02006109           JUNCTION        0.42          0.053        1.767
  WS02006252           JUNCTION        6.36          0.193        0.907
  WS02006256           JUNCTION        6.57          2.050        0.000
  WS02006228           JUNCTION        0.40          0.059        2.141
  YS02001748           JUNCTION        5.18          0.275        0.915
  YS02001751           JUNCTION        5.99          0.551        0.649
  YS02001754           JUNCTION        6.07          0.766        0.384
  YS02001762           JUNCTION        6.19          1.047        0.103
  YS02001765           JUNCTION        6.17          0.994        0.106
  YS02001767           JUNCTION        6.16          0.943        0.087
  YS02001770           JUNCTION        6.15          0.892        0.028
  YS02001774           JUNCTION        6.18          0.981        0.069
  YS02001779           JUNCTION        6.05          0.680        0.000
  YS02001882           JUNCTION        1.51          0.629        0.201
  YS02001884           JUNCTION        1.53          0.670        0.200
  YS02001759           JUNCTION        6.21          1.079        0.131
  YS02001887           JUNCTION        1.59          0.757        0.193
  YS02001890           JUNCTION        1.62          0.760        0.000
  YS02001898           JUNCTION        1.47          0.537        0.203
  YS02001901           JUNCTION        1.56          0.678        0.192
  YS02001904           JUNCTION        1.54          0.640        0.210
  YS02001907           JUNCTION        2.17          0.950        0.000
  YS02001910           JUNCTION        1.65          0.788        0.312
  YS02001915           JUNCTION        1.49          0.600        0.400
  YS02001918           JUNCTION        1.32          0.286        0.524
  YS02001619           JUNCTION        6.00          0.491        0.119
  YS02001629           JUNCTION        6.00          0.467        0.003
  YS02001641           JUNCTION        6.18          0.939        0.161
  YS02001644           JUNCTION        6.18          0.920        0.000
  YS02001652           JUNCTION        6.09          0.990        0.140
  YS02001655           JUNCTION        6.01          0.943        0.257
  YS02001920           JUNCTION        1.35          0.368        0.772
  YS02001658           JUNCTION        5.26          0.835        0.465
  YS02001661           JUNCTION        0.19          0.639        0.751
  YS02001622           JUNCTION        6.01          0.506        0.114
  YS02001633           JUNCTION        6.17          0.928        0.132
  YS02001649           JUNCTION        6.19          1.050        0.000
  YS02001757           JUNCTION        6.25          1.165        0.045
  YS02001895           JUNCTION        1.49          0.567        0.183
  YS02001625           JUNCTION        6.13          0.780        0.000
  YS02163301           JUNCTION        6.16          0.885        0.145
  YS02163601           JUNCTION        6.19          0.994        0.086
  YS02164001           JUNCTION        6.18          0.923        0.177
  YS02001647           JUNCTION        6.10          0.802        0.098
  YS02006553           JUNCTION        2.26          0.973        0.217
  YS02006561           JUNCTION        1.33          0.267        0.883
  YS02006556           JUNCTION        1.84          0.907        0.443
  YS02006558           JUNCTION        1.81          0.890        0.510
  YS02001783           JUNCTION        1.61          0.650        0.950
  YS02001784           JUNCTION        1.57          0.589        0.901
  YS02001786           JUNCTION        1.45          0.425        1.005
  YS02001788           JUNCTION        0.80          0.290        1.190
  YS02001790           JUNCTION        0.90          0.448        0.709
  YS02001791           JUNCTION        0.90          0.423        1.497
  YS02001793           JUNCTION        1.02          0.746        1.854
  
  
  *********************
  Node Flooding Summary
  *********************
  
  Flooding refers to all water that overflows a node, whether it ponds or not.
  --------------------------------------------------------------------------
                                                             Total   Maximum
                                 Maximum   Time of Max       Flood    Ponded
                        Hours       Rate    Occurrence      Volume     Depth
  Node                 Flooded       LPS   days hr:min    10^6 ltr    Meters
  --------------------------------------------------------------------------
  WS02006256              5.43    978.40      0  00:00       8.460     0.000
  YS02001779              2.74    553.95      0  03:01       1.946     0.000
  YS02001890              0.69     47.67      0  02:28       0.070     0.000
  YS02001907              1.19    510.89      0  02:51       1.410     0.000
  YS02001644              3.78   1344.96      0  03:01       7.845     0.000
  YS02001649              0.01     23.70      0  02:27       0.000     0.000
  YS02001625              1.83    334.17      0  02:47       1.327     0.000
  XR-storage              3.94    596.58      0  03:01       3.482     0.000
  
  
  **********************
  Storage Volume Summary
  **********************
  
  --------------------------------------------------------------------------------------------------
                         Average     Avg  Evap Exfil       Maximum     Max    Time of Max    Maximum
                          Volume    Pcnt  Pcnt  Pcnt        Volume    Pcnt     Occurrence    Outflow
  Storage Unit           1000 m3    Full  Loss  Loss       1000 m3    Full    days hr:min        LPS
  --------------------------------------------------------------------------------------------------
  JK-storage               0.059      20     0     0         0.289      99       0  03:01     983.00
  CC-storage               2.755      18     0     0         3.828      24       0  03:06     400.00
  XR-storage               0.712      77     0     0         0.926     100       0  02:34     380.00
  
  
  ***********************
  Outfall Loading Summary
  ***********************
  
  ---------------------------------------------------------------------------------------------------------------------------------
                         Flow       Avg       Max       Total         Total         Total         Total         Total         Total
                         Freq      Flow      Flow      Volume           COD            SS            TN            TP         NH4-N
  Outfall Node           Pcnt       LPS       LPS    10^6 ltr            kg            kg            kg            kg            kg
  ---------------------------------------------------------------------------------------------------------------------------------
  WSC                   99.97    152.79    423.66       3.716       490.593       893.279        24.087         2.701        14.188
  3                     99.98    304.88    510.75       7.685       415.265       799.864         8.112         0.582         3.951
  4                     99.97    313.89    427.27       8.016       745.306      1404.352        14.621         1.005         7.054
  5                     99.99    393.90    448.11      11.254      1356.438      2288.815       102.948        12.443        63.102
  ---------------------------------------------------------------------------------------------------------------------------------
  System                99.98   1165.46   1784.66      30.672      3007.602      5386.310       149.768        16.731        88.296
  
  
  ********************
  Link Flow Summary
  ********************
  
  -----------------------------------------------------------------------------
                                 Maximum  Time of Max   Maximum    Max/    Max/
                                  |Flow|   Occurrence   |Veloc|    Full    Full
  Link                 Type          LPS  days hr:min     m/sec    Flow   Depth
  -----------------------------------------------------------------------------
  WS02003066WSF200     CONDUIT    466.03     0  02:18      2.78    0.08    0.21
  WS02006287WS02006284 CONDUIT    571.67     0  02:10      2.26    0.26    0.36
  WS02006284WS02006280 CONDUIT    571.83     0  02:10      2.50    0.24    0.33
  WS02006280WS02006229 CONDUIT    571.84     0  02:10      4.04    0.12    0.24
  WS02006229WS02006228 CONDUIT    447.72     0  02:11      0.89    1.48    1.00
  WS02006256WS02006235 CONDUIT    289.81     0  02:41      4.46    3.07    0.98
  WS02006253WS02006251 CONDUIT    121.40     0  02:09      0.79    0.36    0.42
  WS02006252WS02006251 CONDUIT    401.00     0  03:28      3.19    1.47    1.00
  WS02006251WS02006249 CONDUIT     94.32     0  02:10      0.73    0.27    0.38
  WS02006249WS02006248 CONDUIT     94.27     0  02:10      0.82    0.52    0.34
  WS02006248WS02006247 CONDUIT     94.26     0  02:10      0.81    0.21    0.35
  WS02006247WS02006245 CONDUIT     94.24     0  02:11      0.78    0.75    0.36
  WS02006245WS02006243 CONDUIT     94.22     0  02:11      0.89    0.28    0.32
  WS02006243WS02006242 CONDUIT     94.17     0  02:12      0.79    0.20    0.37
  WS02006242WS02006240 CONDUIT     94.11     0  02:13      0.63    0.37    0.41
  WS02006240WS02006239 CONDUIT     94.11     0  02:14      0.80    0.30    0.35
  WS02006239WS02006238 CONDUIT     94.19     0  02:15      0.70    0.30    0.41
  WS02006238WS02006235 CONDUIT     94.35     0  02:15      1.17    0.21    0.43
  WS02006235WS02006234 CONDUIT    133.93     0  02:12      0.84    1.41    0.43
  WS02006234WS02006232 CONDUIT    133.95     0  02:11      0.82    0.27    0.60
  WS02006232WS02006231 CONDUIT    134.02     0  02:11      0.51    0.28    0.65
  WS02006231WS02006230 CONDUIT    134.25     0  02:11      0.60    2.04    0.61
  WS02006230WS02006229 CONDUIT    124.23     0  02:10      0.40    2.76    1.00
  WS02006228WS02006109 CONDUIT    447.72     0  02:11      0.89    1.96    1.00
  WS02006116WS02004401 CONDUIT    469.07     0  02:13      0.70    0.65    0.80
  WS02006115WS02006116 CONDUIT    469.78     0  02:12      0.92    0.60    0.72
  WS02006113WS02006111 CONDUIT    461.37     0  02:13      2.31    0.55    0.42
  WS02006112WS02006115 CONDUIT    470.67     0  02:11      0.67    0.28    0.85
  WS02006111WS02006112 CONDUIT    450.92     0  02:10      1.29    0.21    0.66
  WS02006110WS02006113 CONDUIT    449.16     0  02:11      1.10    0.41    0.76
  WS02006109WS02006110 CONDUIT    448.95     0  02:11      0.90    0.86    0.96
  WS02004411WS02004412 CONDUIT    466.36     0  02:17      0.93    0.66    0.65
  WS02004401WS02004402 CONDUIT    469.22     0  02:12      0.68    0.56    0.83
  WS02004413WS02003067 CONDUIT    466.02     0  02:18      1.03    0.20    0.56
  WS02004412WS02004413 CONDUIT    466.12     0  02:17      0.89    0.31    0.74
  WS02004410WS02004411 CONDUIT    466.53     0  02:17      0.88    0.64    0.64
  WS02004409WS02004410 CONDUIT    467.09     0  02:16      0.91    0.60    0.62
  WS02004407WS02004409 CONDUIT    467.78     0  02:16      1.39    0.17    0.45
  WS02004406WS02004407 CONDUIT    467.90     0  02:15      0.96    0.21    0.60
  WS02004405WS02004406 CONDUIT    471.32     0  02:13      0.63    0.93    0.92
  WS02004404WS02004405 CONDUIT    521.13     0  02:13      0.69    5.11    0.93
  WS02004403WS02004404 CONDUIT    480.45     0  02:13      0.65    0.35    0.90
  WS02004402WS02004403 CONDUIT    469.70     0  02:13      0.66    0.67    0.85
  WS02004139WS02001211 CONDUIT     67.80     0  02:21      0.48    0.09    0.22
  WS02004138WS02004139 CONDUIT    396.29     0  00:00      3.67    0.08    0.20
  WS02003067WS02003066 CONDUIT    466.04     0  02:18      1.11    0.15    0.40
  WS02001213WS02003059 CONDUIT     60.66     0  02:19      0.20    0.10    0.53
  WS02001212WS02001213 CONDUIT     60.53     0  02:20      0.73    0.09    0.16
  WS02001211WS02001212 CONDUIT     60.47     0  02:20      0.39    0.05    0.25
  WS02003072WS02003073 CONDUIT    421.95     0  02:21      1.31    0.91    0.33
  WS02003069WS02003072 CONDUIT    421.98     0  02:20      1.26    0.20    0.34
  WS02003060WS02003069 CONDUIT    421.68     0  02:19      1.54    0.17    0.29
  WS02003059WS02003060 CONDUIT     84.67     0  01:47      0.56    0.06    0.45
  HS02004901HS02004770 CONDUIT     28.06     0  02:07      0.08    0.11    0.48
  HS02004876HS02004881 CONDUIT    107.66     0  02:09      1.12    1.15    0.14
  HS02004870HS02004876 CONDUIT     87.07     0  02:09      0.76    0.06    0.16
  HS02004842HS02004848 CONDUIT     15.12     0  02:21      0.07    0.01    0.32
  HS02004837HS02004842 CONDUIT     15.46     0  02:22      0.42    0.01    0.34
  HS02004830HS02004837 CONDUIT     55.56     0  02:10      0.63    0.06    0.13
  HS02004824HS02004830 CONDUIT     55.70     0  02:10      0.62    0.07    0.14
  HS02004817HS02004824 CONDUIT    109.73     0  02:13      0.29    0.05    0.54
  HS02004770HS02004777 CONDUIT    144.86     0  02:07      0.42    0.26    0.49
  HS02004799HS02004480 CONDUIT    361.02     0  02:08      0.97    0.46    0.53
  HS02004792HS02004799 CONDUIT    330.24     0  02:08      1.09    0.20    0.43
  HS02004788HS02004792 CONDUIT    190.82     0  02:09      1.18    0.13    0.23
  HS02004785HS02004788 CONDUIT    144.83     0  02:09      0.82    1.09    0.25
  HS02004777HS02004785 CONDUIT    144.71     0  02:08      0.50    0.18    0.41
  HS02004480HS02004478 CONDUIT    425.83     0  02:09      1.44    1.79    0.42
  HS02004479HS02004480 CONDUIT     64.83     0  02:09      0.33    0.06    0.51
  HS02004862HS02004870 CONDUIT     66.53     0  02:10      0.75    0.07    0.13
  HS02004848HS02004852 CONDUIT     30.83     0  02:10      0.50    0.03    0.09
  HS02004856HS02004862 CONDUIT     46.23     0  02:10      0.55    0.05    0.12
  HS02004852HS02004856 CONDUIT     30.87     0  02:11      0.30    0.04    0.15
  HS02004802HS02004478 CONDUIT    148.20     0  02:13      0.49    0.13    0.43
  HS02004478WS02006287 CONDUIT    571.58     0  02:10      1.98    0.16    0.32
  HS02004817HS02004807 CONDUIT    111.13     0  02:14      0.23    0.07    0.71
  HS02004807HS02004802 CONDUIT    147.68     0  02:12      0.43    0.28    0.49
  YS02001759YS02001757 CONDUIT    841.30     0  02:16      1.07    0.60    1.00
  YS02001762YS02001759 CONDUIT    425.83     0  02:16      0.54    0.49    1.00
  YS02001765YS02001762 CONDUIT    426.59     0  02:16      0.54    0.40    1.00
  YS02001770YS02001767 CONDUIT    425.15     0  02:16      0.54    1.68    1.00
  YS02001774YS02001770 CONDUIT    555.07     0  03:01      0.71    0.35    1.00
  YS02001779YS02001774 CONDUIT    554.00     0  03:01      0.71    0.28    1.00
  YS02001649YS02001757 CONDUIT   1029.33     0  02:10      1.31    0.62    1.00
  YS02001767YS02001765 CONDUIT    426.22     0  02:16      0.54    0.54    1.00
  YS02006561YS02001783 CONDUIT   1146.04     0  02:42      2.28    0.59    1.00
  YS02001783YS02001784 CONDUIT   1145.93     0  02:42      2.28    1.58    1.00
  YS02001784YS02001785 CONDUIT   1146.80     0  02:42      2.28    2.67    1.00
  YS02001788YS02001790 CONDUIT   1159.54     0  02:19      2.72    0.85    1.00
  YS02001790YS02001791 CONDUIT   1274.84     0  02:32      3.42    1.39    1.00
  YS02001791YS02001793 CONDUIT   1224.84     0  02:34      6.75    0.53    1.00
  YS02001910YS02001907 CONDUIT    535.61     0  02:13      0.68    0.30    1.00
  YS02001786YS02001788 CONDUIT   1146.73     0  02:42      2.46    2.21    1.00
  YS02001915YS02001910 CONDUIT    535.69     0  02:13      0.68    0.27    1.00
  YS02001918YS02001915 CONDUIT    268.20     0  03:35      0.46    0.15    1.00
  YS02001923YS02001920 CONDUIT    251.66     0  02:13      0.78    0.11    1.00
  YS02001926YS02001923 CONDUIT    253.01     0  02:12      0.89    0.36    0.94
  YS02001929YS02001926 CONDUIT    189.26     0  03:00      0.95    0.09    0.82
  YS02001920YS02001918 CONDUIT    255.35     0  02:13      0.74    0.25    1.00
  YS02001629YS02163301 CONDUIT    218.17     0  02:04      0.28    0.27    1.00
  YS02001619YS02001622 CONDUIT    334.48     0  02:44      0.67    0.49    1.00
  YS02001622YS02001625 CONDUIT    334.05     0  02:45      0.43    0.18    1.00
  YS02001625YS02001629 CONDUIT    217.55     0  02:04      0.28    0.10    1.00
  YS02163301YS02001633 CONDUIT    218.63     0  02:04      0.28    0.21    1.00
  YS02163601YS02164001 CONDUIT    454.20     0  02:04      0.58    0.40    1.00
  YS02164001YS02001641 CONDUIT    454.35     0  02:04      0.58    0.62    1.00
  YS02001641YS02001644 CONDUIT    454.53     0  02:04      0.58    1.47    1.00
  YS02001647YS02001649 CONDUIT    686.53     0  02:04      0.87    0.36    1.00
  YS02006553YS02006556 CONDUIT    712.07     0  03:35      0.91    0.61    1.00
  YS02006556YS02006558 CONDUIT    712.03     0  03:35      0.91    0.56    1.00
  YSB6556YSB1171       CONDUIT     36.30     0  02:09      0.11    0.04    0.78
  YS02001907YS02006553 CONDUIT    712.91     0  03:35      0.79    0.84    1.00
  YS02006558YS02006561 CONDUIT   1145.67     0  02:42      4.05    2.53    1.00
  YS02001633YS02163601 CONDUIT    454.02     0  02:04      0.58    0.48    1.00
  YS02001644YS02001647 CONDUIT    686.70     0  02:04      0.87    0.40    1.00
  YS02001745YS02001748 CONDUIT    397.82     0  02:42      1.56    0.15    0.96
  YS02001748YS02001751 CONDUIT    397.41     0  02:45      1.12    0.20    1.00
  YS02001751YS02001754 CONDUIT    397.43     0  02:47      0.94    0.19    1.00
  YS02001754YS02001757 CONDUIT    396.74     0  02:42      0.51    0.16    1.00
  YS02001882YS02001884 CONDUIT     32.08     0  02:05      0.14    0.04    1.00
  YS02001884YS02001887 CONDUIT     38.72     0  02:04      0.10    0.05    1.00
  YS02001890YS02001895 CONDUIT    518.37     0  02:30      0.66    0.24    1.00
  YS02001895YS02001898 CONDUIT    518.19     0  02:19      0.66    0.90    1.00
  YS02001898YS02001901 CONDUIT    518.22     0  02:30      0.66    0.33    1.00
  YS02001901YS02001904 CONDUIT    518.01     0  02:30      0.66    0.80    1.00
  YS02001904YS02001907 CONDUIT    517.90     0  02:30      0.66    0.18    1.00
  YS02001887YS02001890 CONDUIT    563.33     0  02:28      0.72    0.96    1.00
  YS02001652YS02001649 CONDUIT    455.76     0  02:24      0.64    0.23    1.00
  YS02001655YS02001652 CONDUIT    453.96     0  02:20      1.01    0.22    1.00
  YS02001658YS02001655 CONDUIT    452.85     0  02:23      1.30    0.19    1.00
  YS02001661YS02001658 CONDUIT    496.73     0  02:24      1.65    0.19    1.00
  YS02001664YS02001661 CONDUIT    754.73     0  02:20      1.68    0.24    0.75
  YSB1154YSB6556       CONDUIT     36.33     0  02:08      0.15    0.07    0.67
  YSB1174YSB1171       CONDUIT     29.30     0  02:05      0.09    0.04    0.79
  YSB1171HS02004479    CONDUIT     64.80     0  02:08      0.54    0.04    0.63
  HS02004881HS02006253 CONDUIT    118.67     0  02:09      2.55    0.02    0.07
  YS02001793JiankangQianchi CONDUIT   1217.61     0  02:18     20.78    0.10    1.00
  YS02001757CaochengTiaoxuchi CONDUIT   2118.47     0  02:14      3.57    0.93    1.00
  WSF200WS02003060     CONDUIT    466.05     0  02:18      2.12    0.10    0.25
  1                    CONDUIT    423.66     0  02:22      2.62    0.15    0.26
  CC-Pump-1            PUMP       200.00     0  01:40              1.00
  CC-Pump-2            PUMP       200.00     0  01:40              1.00
  JK-Pump-1            PUMP       300.00     0  00:00              1.00
  JK-Pump-2            PUMP       683.00     0  00:00              1.00
  XR-Pump-1            PUMP        95.00     0  00:00              1.00
  XR-Pump-2            PUMP        95.00     0  00:00              1.00
  XR-Pump-3            PUMP        95.00     0  00:00              1.00
  XR-Pump-4            PUMP        95.00     0  00:00              1.00
  3                    WEIR       427.27     0  02:09                      0.25
  5                    WEIR       510.75     0  02:12                      0.29
  6                    WEIR       448.11     0  02:22                      0.26
  
  
  ***************************
  Flow Classification Summary
  ***************************
  
  -------------------------------------------------------------------------------------
                      Adjusted    ---------- Fraction of Time in Flow Class ---------- 
                       /Actual         Up    Down  Sub   Sup   Up    Down  Norm  Inlet 
  Conduit               Length    Dry  Dry   Dry   Crit  Crit  Crit  Crit  Ltd   Ctrl  
  -------------------------------------------------------------------------------------
  WS02003066WSF200        1.00   0.13  0.00  0.00  0.00  0.87  0.00  0.00  0.78  0.00
  WS02006287WS02006284    1.00   0.05  0.02  0.00  0.52  0.42  0.00  0.00  0.63  0.00
  WS02006284WS02006280    1.00   0.06  0.00  0.00  0.00  0.00  0.00  0.94  0.00  0.00
  WS02006280WS02006229    1.00   0.06  0.00  0.00  0.00  0.00  0.00  0.94  0.00  0.00
  WS02006229WS02006228    1.00   0.00  0.00  0.00  0.99  0.00  0.00  0.01  0.00  0.00
  WS02006256WS02006235    1.00   0.00  0.00  0.00  0.09  0.91  0.00  0.00  0.01  0.00
  WS02006253WS02006251    1.00   0.02  0.03  0.00  0.89  0.00  0.06  0.00  0.00  0.00
  WS02006252WS02006251    1.00   0.10  0.00  0.00  0.00  0.00  0.90  0.00  0.00  0.00
  WS02006251WS02006249    1.00   0.00  0.00  0.00  1.00  0.00  0.00  0.00  0.18  0.00
  WS02006249WS02006248    1.00   0.00  0.06  0.00  0.88  0.00  0.06  0.00  0.00  0.00
  WS02006248WS02006247    1.00   0.06  0.00  0.00  0.92  0.00  0.00  0.02  0.01  0.00
  WS02006247WS02006245    1.00   0.07  0.00  0.00  0.89  0.00  0.00  0.04  0.00  0.00
  WS02006245WS02006243    1.00   0.07  0.00  0.00  0.87  0.00  0.00  0.06  0.00  0.00
  WS02006243WS02006242    1.00   0.07  0.00  0.00  0.90  0.00  0.00  0.03  0.67  0.00
  WS02006242WS02006240    1.00   0.00  0.07  0.00  0.92  0.00  0.00  0.00  0.19  0.00
  WS02006240WS02006239    1.00   0.00  0.00  0.00  0.91  0.00  0.00  0.09  0.00  0.00
  WS02006239WS02006238    1.00   0.00  0.00  0.00  1.00  0.00  0.00  0.00  0.18  0.00
  WS02006238WS02006235    1.00   0.00  0.00  0.00  1.00  0.00  0.00  0.00  0.00  0.00
  WS02006235WS02006234    1.00   0.07  0.00  0.00  0.90  0.00  0.02  0.01  0.00  0.00
  WS02006234WS02006232    1.00   0.00  0.00  0.00  1.00  0.00  0.00  0.00  0.15  0.00
  WS02006232WS02006231    1.00   0.00  0.00  0.00  0.99  0.00  0.00  0.00  0.01  0.00
  WS02006231WS02006230    1.00   0.00  0.00  0.00  0.32  0.00  0.68  0.00  0.00  0.00
  WS02006230WS02006229    1.00   0.00  0.00  0.00  0.99  0.00  0.00  0.01  0.02  0.00
  WS02006228WS02006109    1.00   0.00  0.00  0.00  1.00  0.00  0.00  0.00  0.00  0.00
  WS02006116WS02004401    1.00   0.04  0.00  0.00  0.96  0.00  0.00  0.00  0.00  0.00
  WS02006115WS02006116    1.00   0.04  0.00  0.00  0.91  0.00  0.00  0.04  0.00  0.00
  WS02006113WS02006111    1.00   0.03  0.00  0.00  0.01  0.96  0.00  0.00  0.09  0.00
  WS02006112WS02006115    1.00   0.03  0.02  0.00  0.95  0.00  0.00  0.00  0.00  0.00
  WS02006111WS02006112    1.00   0.03  0.00  0.00  0.97  0.00  0.00  0.00  0.93  0.00
  WS02006110WS02006113    1.00   0.01  0.02  0.00  0.97  0.00  0.00  0.00  0.00  0.00
  WS02006109WS02006110    1.00   0.00  0.01  0.00  0.99  0.00  0.00  0.00  0.00  0.00
  WS02004411WS02004412    1.00   0.10  0.00  0.00  0.90  0.00  0.00  0.00  0.00  0.00
  WS02004401WS02004402    1.00   0.05  0.00  0.00  0.95  0.00  0.00  0.00  0.04  0.00
  WS02004413WS02003067    1.00   0.10  0.02  0.00  0.00  0.00  0.87  0.00  0.00  0.00
  WS02004412WS02004413    1.00   0.10  0.00  0.00  0.89  0.01  0.00  0.00  0.00  0.00
  WS02004410WS02004411    1.00   0.10  0.00  0.00  0.90  0.00  0.00  0.00  0.00  0.00
  WS02004409WS02004410    1.00   0.10  0.00  0.00  0.90  0.00  0.00  0.00  0.00  0.00
  WS02004407WS02004409    1.00   0.10  0.00  0.00  0.89  0.01  0.00  0.00  0.80  0.00
  WS02004406WS02004407    1.00   0.00  0.09  0.00  0.91  0.00  0.00  0.00  0.00  0.00
  WS02004405WS02004406    1.00   0.00  0.00  0.00  1.00  0.00  0.00  0.00  0.04  0.00
  WS02004404WS02004405    1.00   0.00  0.00  0.00  1.00  0.00  0.00  0.00  0.02  0.00
  WS02004403WS02004404    1.00   0.00  0.05  0.00  0.95  0.00  0.00  0.00  0.04  0.00
  WS02004402WS02004403    1.00   0.05  0.00  0.00  0.95  0.00  0.00  0.00  0.00  0.00
  WS02004139WS02001211    1.00   0.00  0.00  0.00  1.00  0.00  0.00  0.00  0.00  0.00
  WS02004138WS02004139    1.00   0.00  0.00  0.00  0.00  0.27  0.00  0.73  0.21  0.00
  WS02003067WS02003066    1.00   0.13  0.00  0.00  0.87  0.00  0.00  0.00  0.00  0.00
  WS02001213WS02003059    1.00   0.00  0.00  0.00  0.99  0.00  0.00  0.00  0.00  0.00
  WS02001212WS02001213    1.00   0.00  0.00  0.00  0.34  0.00  0.66  0.00  0.00  0.00
  WS02001211WS02001212    1.00   0.00  0.00  0.00  1.00  0.00  0.00  0.00  0.12  0.00
  WS02003072WS02003073    1.00   0.00  0.00  0.00  0.00  0.00  0.00  1.00  0.00  0.00
  WS02003069WS02003072    1.00   0.00  0.00  0.00  1.00  0.00  0.00  0.00  0.93  0.00
  WS02003060WS02003069    1.00   0.00  0.00  0.00  0.98  0.02  0.00  0.00  0.80  0.00
  WS02003059WS02003060    1.00   0.00  0.00  0.00  1.00  0.00  0.00  0.00  0.05  0.00
  HS02004901HS02004770    1.00   0.05  0.00  0.00  0.95  0.00  0.00  0.00  0.00  0.00
  HS02004876HS02004881    1.00   0.01  0.00  0.00  0.79  0.20  0.00  0.00  0.00  0.00
  HS02004870HS02004876    1.00   0.00  0.00  0.00  0.99  0.00  0.00  0.00  0.95  0.00
  HS02004842HS02004848    1.00   0.00  0.05  0.00  0.94  0.00  0.00  0.00  0.57  0.00
  HS02004837HS02004842    1.00   0.00  0.00  0.00  1.00  0.00  0.00  0.00  0.11  0.00
  HS02004830HS02004837    1.00   0.00  0.00  0.00  1.00  0.00  0.00  0.00  0.99  0.00
  HS02004824HS02004830    1.00   0.00  0.00  0.00  1.00  0.00  0.00  0.00  0.00  0.00
  HS02004817HS02004824    1.00   0.00  0.00  0.00  1.00  0.00  0.00  0.00  0.95  0.00
  HS02004770HS02004777    1.00   0.00  0.05  0.00  0.95  0.00  0.00  0.00  0.02  0.00
  HS02004799HS02004480    1.00   0.00  0.02  0.00  0.93  0.00  0.05  0.00  0.00  0.00
  HS02004792HS02004799    1.00   0.00  0.00  0.00  0.99  0.01  0.00  0.00  0.98  0.00
  HS02004788HS02004792    1.00   0.00  0.00  0.00  0.99  0.01  0.00  0.00  0.98  0.00
  HS02004785HS02004788    1.00   0.00  0.00  0.00  1.00  0.00  0.00  0.00  0.00  0.00
  HS02004777HS02004785    1.00   0.00  0.00  0.00  1.00  0.00  0.00  0.00  0.11  0.00
  HS02004480HS02004478    1.00   0.06  0.00  0.00  0.58  0.00  0.00  0.37  0.00  0.00
  HS02004479HS02004480    1.00   0.02  0.00  0.00  0.98  0.00  0.00  0.00  0.11  0.00
  HS02004862HS02004870    1.00   0.00  0.00  0.00  1.00  0.00  0.00  0.00  0.03  0.00
  HS02004848HS02004852    1.00   0.06  0.00  0.00  0.94  0.00  0.00  0.00  0.75  0.00
  HS02004856HS02004862    1.00   0.00  0.07  0.00  0.93  0.00  0.00  0.00  0.84  0.00
  HS02004852HS02004856    1.00   0.05  0.00  0.00  0.94  0.00  0.00  0.00  0.79  0.00
  HS02004802HS02004478    1.00   0.06  0.00  0.00  0.94  0.00  0.00  0.00  0.02  0.00
  HS02004478WS02006287    1.00   0.07  0.00  0.00  0.63  0.30  0.00  0.00  0.64  0.00
  HS02004817HS02004807    1.00   0.00  0.06  0.00  0.94  0.00  0.00  0.00  0.01  0.00
  HS02004807HS02004802    1.00   0.06  0.00  0.00  0.94  0.00  0.00  0.01  0.00  0.00
  YS02001759YS02001757    1.00   0.00  0.00  0.00  1.00  0.00  0.00  0.00  0.15  0.00
  YS02001762YS02001759    1.00   0.00  0.00  0.00  1.00  0.00  0.00  0.00  0.03  0.00
  YS02001765YS02001762    1.00   0.00  0.00  0.00  1.00  0.00  0.00  0.00  0.13  0.00
  YS02001770YS02001767    1.00   0.00  0.00  0.00  1.00  0.00  0.00  0.00  0.00  0.00
  YS02001774YS02001770    1.00   0.00  0.06  0.00  0.94  0.00  0.00  0.00  0.02  0.00
  YS02001779YS02001774    1.00   0.00  0.00  0.00  1.00  0.00  0.00  0.00  0.17  0.00
  YS02001649YS02001757    1.00   0.00  0.00  0.00  1.00  0.00  0.00  0.00  0.15  0.00
  YS02001767YS02001765    1.00   0.00  0.00  0.00  1.00  0.00  0.00  0.00  0.00  0.00
  YS02006561YS02001783    1.00   0.08  0.00  0.00  0.30  0.62  0.00  0.00  0.45  0.00
  YS02001783YS02001784    1.00   0.00  0.08  0.00  0.92  0.00  0.00  0.00  0.00  0.00
  YS02001784YS02001785    1.00   0.00  0.00  0.00  1.00  0.00  0.00  0.00  0.16  0.00
  YS02001788YS02001790    1.00   0.00  0.00  0.00  0.27  0.73  0.00  0.00  0.43  0.00
  YS02001790YS02001791    1.00   0.00  0.00  0.00  0.14  0.86  0.00  0.00  0.58  0.00
  YS02001791YS02001793    1.00   0.00  0.00  0.00  0.15  0.85  0.00  0.00  0.01  0.00
  YS02001910YS02001907    1.00   0.00  0.00  0.00  0.99  0.00  0.00  0.01  0.12  0.00
  YS02001786YS02001788    1.00   0.00  0.00  0.00  0.33  0.67  0.00  0.00  0.00  0.00
  YS02001915YS02001910    1.00   0.00  0.00  0.00  0.99  0.01  0.00  0.00  0.14  0.00
  YS02001918YS02001915    1.00   0.00  0.00  0.00  0.99  0.01  0.00  0.00  0.53  0.00
  YS02001923YS02001920    1.00   0.00  0.00  0.00  1.00  0.00  0.00  0.00  0.78  0.00
  YS02001926YS02001923    1.00   0.00  0.03  0.00  0.23  0.00  0.73  0.00  0.00  0.00
  YS02001929YS02001926    1.00   0.00  0.05  0.00  0.95  0.00  0.00  0.00  0.70  0.00
  YS02001920YS02001918    1.00   0.00  0.00  0.00  1.00  0.00  0.00  0.00  0.00  0.00
  YS02001629YS02163301    1.00   0.06  0.00  0.00  0.93  0.00  0.00  0.00  0.00  0.00
  YS02001619YS02001622    1.00   0.05  0.00  0.00  0.95  0.00  0.00  0.00  0.00  0.00
  YS02001622YS02001625    1.00   0.06  0.00  0.00  0.94  0.00  0.00  0.00  0.04  0.00
  YS02001625YS02001629    1.00   0.06  0.02  0.00  0.89  0.00  0.03  0.00  0.00  0.00
  YS02163301YS02001633    1.00   0.00  0.06  0.00  0.94  0.00  0.00  0.00  0.00  0.00
  YS02163601YS02164001    1.00   0.00  0.04  0.00  0.96  0.00  0.00  0.00  0.00  0.00
  YS02164001YS02001641    1.00   0.01  0.03  0.00  0.96  0.00  0.00  0.00  0.05  0.00
  YS02001641YS02001644    1.00   0.00  0.00  0.00  1.00  0.00  0.00  0.00  0.00  0.00
  YS02001647YS02001649    1.00   0.00  0.07  0.00  0.93  0.00  0.00  0.00  0.01  0.00
  YS02006553YS02006556    1.00   0.01  0.00  0.00  0.99  0.00  0.00  0.00  0.03  0.00
  YS02006556YS02006558    1.00   0.00  0.00  0.00  1.00  0.00  0.00  0.00  0.00  0.00
  YSB6556YSB1171          1.00   0.02  0.03  0.00  0.95  0.00  0.00  0.00  0.00  0.00
  YS02001907YS02006553    1.00   0.00  0.01  0.00  0.99  0.00  0.00  0.00  0.00  0.00
  YS02006558YS02006561    1.00   0.08  0.00  0.00  0.22  0.70  0.00  0.00  0.48  0.00
  YS02001633YS02163601    1.00   0.00  0.01  0.00  0.99  0.00  0.00  0.00  0.14  0.00
  YS02001644YS02001647    1.00   0.00  0.07  0.00  0.93  0.00  0.00  0.00  0.00  0.00
  YS02001745YS02001748    1.00   0.00  0.00  0.00  0.86  0.01  0.00  0.14  0.02  0.00
  YS02001748YS02001751    1.00   0.00  0.00  0.00  0.95  0.05  0.00  0.00  0.14  0.00
  YS02001751YS02001754    1.00   0.00  0.00  0.00  0.91  0.00  0.00  0.08  0.02  0.00
  YS02001754YS02001757    1.00   0.00  0.00  0.00  1.00  0.00  0.00  0.00  0.17  0.00
  YS02001882YS02001884    1.00   0.06  0.00  0.00  0.93  0.00  0.00  0.00  0.00  0.00
  YS02001884YS02001887    1.00   0.03  0.02  0.00  0.95  0.00  0.00  0.00  0.00  0.00
  YS02001890YS02001895    1.00   0.00  0.06  0.00  0.93  0.00  0.00  0.00  0.00  0.00
  YS02001895YS02001898    1.00   0.07  0.00  0.00  0.92  0.00  0.01  0.00  0.00  0.00
  YS02001898YS02001901    1.00   0.07  0.00  0.00  0.93  0.00  0.00  0.00  0.01  0.00
  YS02001901YS02001904    1.00   0.07  0.00  0.00  0.93  0.00  0.00  0.00  0.00  0.00
  YS02001904YS02001907    1.00   0.00  0.07  0.00  0.93  0.00  0.00  0.00  0.00  0.00
  YS02001887YS02001890    1.00   0.00  0.00  0.00  0.98  0.00  0.01  0.00  0.00  0.00
  YS02001652YS02001649    1.00   0.00  0.00  0.00  1.00  0.00  0.00  0.00  0.15  0.00
  YS02001655YS02001652    1.00   0.00  0.00  0.00  0.91  0.00  0.00  0.08  0.02  0.00
  YS02001658YS02001655    1.00   0.00  0.06  0.00  0.90  0.04  0.00  0.00  0.05  0.00
  YS02001661YS02001658    1.00   0.06  0.00  0.00  0.86  0.08  0.00  0.00  0.02  0.00
  YS02001664YS02001661    1.00   0.05  0.00  0.00  0.87  0.08  0.00  0.00  0.14  0.00
  YSB1154YSB6556          1.00   0.05  0.00  0.00  0.95  0.00  0.00  0.00  0.01  0.00
  YSB1174YSB1171          1.00   0.02  0.02  0.00  0.96  0.00  0.00  0.00  0.00  0.00
  YSB1171HS02004479       1.00   0.02  0.00  0.00  0.98  0.00  0.00  0.01  0.10  0.00
  HS02004881HS02006253    1.00   0.03  0.00  0.00  0.00  0.00  0.00  0.97  0.00  0.00
  YS02001793JiankangQianchi    1.00   0.00  0.00  0.00  0.22  0.78  0.00  0.00  0.07  0.00
  YS02001757CaochengTiaoxuchi    1.00   0.00  0.10  0.00  0.82  0.08  0.00  0.00  0.00  0.00
  WSF200WS02003060        1.00   0.00  0.13  0.00  0.00  0.87  0.00  0.00  0.58  0.00
  1                       1.00   0.00  0.00  0.00  0.00  1.00  0.00  0.00  0.20  0.00
  
  
  *************************
  Conduit Surcharge Summary
  *************************
  
  ----------------------------------------------------------------------------
                                                           Hours        Hours 
                         --------- Hours Full --------   Above Full   Capacity
  Conduit                Both Ends  Upstream  Dnstream   Normal Flow   Limited
  ----------------------------------------------------------------------------
  WS02006229WS02006228        0.40      0.44      0.40      1.25         0.40
  WS02006256WS02006235        0.01      0.01      6.56      6.54         0.01
  WS02006252WS02006251        6.34      6.34      6.36      6.35         0.01
  WS02006235WS02006234        0.01      0.01      0.01      0.36         0.01
  WS02006231WS02006230        0.01      0.01      0.01      0.54         0.01
  WS02006230WS02006229        0.68      0.68      0.69      3.85         0.01
  WS02006228WS02006109        0.42      0.56      0.42      1.58         0.42
  WS02006111WS02006112        0.01      0.01      1.37      0.01         0.01
  WS02006110WS02006113        0.01      0.01      0.49      0.01         0.01
  WS02006109WS02006110        0.01      0.01      0.56      0.01         0.01
  WS02004404WS02004405        0.01      0.01      0.01      2.22         0.01
  HS02004876HS02004881        0.01      0.01      0.01      0.33         0.01
  HS02004785HS02004788        0.01      0.01      0.01      0.24         0.01
  HS02004480HS02004478        0.01      0.01      0.01      0.98         0.01
  YS02001759YS02001757        6.21      6.21      6.25      0.01         0.01
  YS02001762YS02001759        6.19      6.19      6.21      0.01         0.01
  YS02001765YS02001762        6.17      6.17      6.19      0.01         0.01
  YS02001770YS02001767        6.16      6.16      6.16      0.46         1.11
  YS02001774YS02001770        6.15      6.15      6.18      0.01         0.01
  YS02001779YS02001774        6.05      6.05      6.18      0.01         0.01
  YS02001649YS02001757        6.19      6.19      6.25      0.01         0.01
  YS02001767YS02001765        6.16      6.16      6.17      0.01         0.01
  YS02006561YS02001783        1.33      1.33      1.61      0.01         0.01
  YS02001783YS02001784        1.57      1.61      1.57      1.91         1.57
  YS02001784YS02001785        1.45      1.57      1.45      2.70         1.45
  YS02001788YS02001790        0.80      0.80      0.90      0.01         0.01
  YS02001790YS02001791        0.90      0.90      0.90      1.56         0.89
  YS02001791YS02001793        0.90      0.90      1.06      0.01         0.01
  YS02001910YS02001907        1.65      1.65      2.17      0.01         0.01
  YS02001786YS02001788        0.80      1.45      0.80      2.32         0.80
  YS02001915YS02001910        1.49      1.49      1.65      0.01         0.01
  YS02001918YS02001915        1.32      1.32      1.49      0.01         0.01
  YS02001923YS02001920        1.17      1.17      1.35      0.01         0.01
  YS02001920YS02001918        1.32      1.32      1.35      0.01         0.01
  YS02001629YS02163301        6.15      6.15      6.16      0.01         0.01
  YS02001619YS02001622        6.00      6.00      6.01      0.01         0.01
  YS02001622YS02001625        6.01      6.01      6.13      0.01         0.01
  YS02001625YS02001629        6.00      6.00      6.13      0.01         0.01
  YS02163301YS02001633        6.16      6.16      6.18      0.01         0.01
  YS02163601YS02164001        6.18      6.18      6.19      0.01         0.01
  YS02164001YS02001641        6.18      6.18      6.18      0.01         0.03
  YS02001641YS02001644        6.18      6.18      6.18      2.09         2.00
  YS02001647YS02001649        6.10      6.10      6.19      0.01         0.01
  YS02006553YS02006556        1.84      1.84      2.26      0.01         0.01
  YS02006556YS02006558        1.96      1.96      2.32      0.01         0.01
  YS02001907YS02006553        2.72      2.72      2.92      0.01         0.01
  YS02006558YS02006561        1.43      1.81      1.43      2.57         1.43
  YS02001633YS02163601        6.17      6.17      6.19      0.01         0.01
  YS02001644YS02001647        6.10      6.10      6.18      0.01         0.01
  YS02001745YS02001748        0.01      0.01      5.18      0.01         0.01
  YS02001748YS02001751        5.53      5.53      5.99      0.01         0.01
  YS02001751YS02001754        5.99      5.99      6.07      0.01         0.01
  YS02001754YS02001757        6.09      6.09      6.25      0.01         0.01
  YS02001882YS02001884        1.51      1.51      1.53      0.01         0.01
  YS02001884YS02001887        1.57      1.57      1.59      0.01         0.01
  YS02001890YS02001895        1.49      1.49      1.67      0.01         0.01
  YS02001895YS02001898        1.47      1.47      1.49      0.01         0.01
  YS02001898YS02001901        1.49      1.49      1.56      0.01         0.01
  YS02001901YS02001904        1.54      1.54      1.56      0.01         0.01
  YS02001904YS02001907        1.54      1.54      2.28      0.01         0.01
  YS02001887YS02001890        1.62      1.62      1.64      0.01         0.01
  YS02001652YS02001649        6.10      6.10      6.19      0.01         0.01
  YS02001655YS02001652        6.01      6.01      6.09      0.01         0.01
  YS02001658YS02001655        5.26      5.26      6.01      0.01         0.01
  YS02001661YS02001658        0.17      0.17      5.26      0.01         0.01
  YS02001664YS02001661        0.01      0.01      1.19      0.01         0.01
  YS02001793JiankangQianchi        1.02      1.02      1.74      0.01         0.01
  YS02001757CaochengTiaoxuchi        5.40      5.40      6.25      0.01         0.01
  
  
  ***************
  Pumping Summary
  ***************
  
  ---------------------------------------------------------------------------------------------------------
                                                  Min       Avg       Max     Total     Power    % Time Off
                        Percent   Number of      Flow      Flow      Flow    Volume     Usage    Pump Curve
  Pump                 Utilized   Start-Ups       LPS       LPS       LPS  10^6 ltr     Kw-hr    Low   High
  ---------------------------------------------------------------------------------------------------------
  CC-Pump-1               80.02           1      0.00    197.71    200.00     4.581      8.42    0.0    7.9
  CC-Pump-2               80.02           1      0.00    197.71    200.00     4.581      8.42    0.0    7.9
  JK-Pump-1              100.00           1      0.00    229.61    300.00     5.675    106.58    0.0    0.0
  JK-Pump-2              100.00           1      0.00    386.06    683.00     9.225    158.08    0.0   98.0
  XR-Pump-1              100.00           1      0.00     95.00     95.00     2.736     27.96    0.0    0.0
  XR-Pump-2              100.00           1      0.00     95.00     95.00     2.736     27.96    0.0    0.0
  XR-Pump-3              100.00           1      0.00     95.00     95.00     2.736     27.96    0.0    0.0
  XR-Pump-4              100.00           1      0.00     95.00     95.00     2.736     27.96    0.0    0.0
  
  
  ***************************
  Link Pollutant Load Summary
  ***************************
  
  ------------------------------------------------------------------------------------------
                                 COD            SS            TN            TP         NH4-N
  Link                            kg            kg            kg            kg            kg
  ------------------------------------------------------------------------------------------
  WS02003066WSF200           376.088       718.613        11.412         1.095         6.205
  WS02006287WS02006284       371.299       712.772        11.405         1.100         6.216
  WS02006284WS02006280       371.810       713.595        11.454         1.106         6.246
  WS02006280WS02006229       371.792       713.570        11.451         1.106         6.245
  WS02006229WS02006228       363.058       693.030        11.183         1.077         6.098
  WS02006256WS02006235       253.964       491.309         4.900         0.353         2.392
  WS02006253WS02006251        63.282       126.617         1.321         0.095         0.643
  WS02006252WS02006251       837.967      1571.792        16.313         1.115         7.856
  WS02006251WS02006249       156.169       294.370         3.060         0.210         1.476
  WS02006249WS02006248       155.886       293.858         3.052         0.210         1.472
  WS02006248WS02006247       155.728       293.585         3.049         0.209         1.470
  WS02006247WS02006245       155.502       293.181         3.044         0.209         1.468
  WS02006245WS02006243       155.212       292.660         3.038         0.209         1.465
  WS02006243WS02006242       154.940       292.185         3.032         0.208         1.462
  WS02006242WS02006240       154.503       291.405         3.023         0.208         1.457
  WS02006240WS02006239       154.243       290.937         3.017         0.207         1.455
  WS02006239WS02006238       153.924       290.361         3.010         0.207         1.451
  WS02006238WS02006235       153.875       290.281         3.009         0.207         1.451
  WS02006235WS02006234        55.841       109.439         1.165         0.089         0.577
  WS02006234WS02006232        56.534       110.820         1.181         0.091         0.585
  WS02006232WS02006231        57.510       112.758         1.203         0.093         0.596
  WS02006231WS02006230        58.078       113.883         1.216         0.094         0.603
  WS02006230WS02006229        60.280       118.215         1.269         0.098         0.629
  WS02006228WS02006109       362.480       692.086        11.134         1.071         6.067
  WS02006116WS02004401       382.107       728.288        11.919         1.157         6.518
  WS02006115WS02006116       382.567       729.021        11.965         1.163         6.547
  WS02006113WS02006111       369.758       703.734        11.842         1.160         6.511
  WS02006112WS02006115       383.091       729.861        12.009         1.169         6.575
  WS02006111WS02006112       369.613       703.515        11.826         1.158         6.500
  WS02006110WS02006113       369.887       703.928        11.856         1.162         6.519
  WS02006109WS02006110       370.565       705.005        11.917         1.169         6.557
  WS02004411WS02004412       377.665       721.058        11.556         1.113         6.294
  WS02004401WS02004402       381.405       727.150        11.861         1.150         6.483
  WS02004413WS02003067       376.562       719.422        11.445         1.099         6.225
  WS02004412WS02004413       377.099       720.146        11.506         1.107         6.263
  WS02004410WS02004411       378.058       721.698        11.590         1.117         6.315
  WS02004409WS02004410       378.349       722.152        11.618         1.121         6.333
  WS02004407WS02004409       378.621       722.609        11.641         1.123         6.347
  WS02004406WS02004407       378.753       722.851        11.649         1.124         6.352
  WS02004405WS02004406       380.264       725.268        11.782         1.141         6.434
  WS02004404WS02004405       380.833       726.230        11.824         1.146         6.460
  WS02004403WS02004404       380.073       724.988        11.751         1.137         6.415
  WS02004402WS02004403       380.710       726.013        11.803         1.143         6.447
  WS02004139WS02001211        56.019        97.725         3.765         0.450         2.294
  WS02004138WS02004139      1298.521      2188.043        99.003        11.970        60.696
  WS02003067WS02003066       376.092       718.598        11.416         1.096         6.207
  WS02001213WS02003059        50.772        91.313         2.872         0.333         1.721
  WS02001212WS02001213        53.066        93.977         3.293         0.388         1.992
  WS02001211WS02001212        54.230        95.311         3.506         0.416         2.129
  WS02003072WS02003073       478.553       874.427        22.865         2.548        13.422
  WS02003069WS02003072       479.865       876.367        23.014         2.566        13.516
  WS02003060WS02003069       478.175       873.672        22.849         2.546        13.413
  WS02003059WS02003060        54.085        98.563         2.800         0.319         1.662
  HS02004901HS02004770        15.688        30.642         0.297         0.022         0.140
  HS02004876HS02004881        53.861       107.609         1.167         0.085         0.571
  HS02004870HS02004876        40.833        81.448         0.928         0.069         0.458
  HS02004842HS02004848         7.780        15.054         0.161         0.011         0.074
  HS02004837HS02004842        12.401        22.392         0.630         0.070         0.369
  HS02004830HS02004837        76.063       134.150         4.828         0.571         2.929
  HS02004824HS02004830        76.845       135.410         4.902         0.580         2.975
  HS02004817HS02004824       107.637       197.879         5.528         0.620         3.279
  HS02004770HS02004777        59.820       118.341         1.228         0.084         0.568
  HS02004799HS02004480       193.523       373.338         4.894         0.427         2.513
  HS02004792HS02004799       175.989       337.433         4.612         0.412         2.385
  HS02004788HS02004792        97.326       186.976         2.977         0.279         1.591
  HS02004785HS02004788        61.283       120.679         1.379         0.103         0.664
  HS02004777HS02004785        60.592       119.566         1.316         0.095         0.625
  HS02004480HS02004478       242.946       471.662         5.732         0.487         2.910
  HS02004479HS02004480        53.020       104.088         1.154         0.100         0.593
  HS02004862HS02004870        30.904        60.789         0.732         0.057         0.364
  HS02004848HS02004852        12.661        24.766         0.258         0.018         0.119
  HS02004856HS02004862        21.100        42.093         0.421         0.028         0.198
  HS02004852HS02004856        12.670        24.780         0.258         0.018         0.119
  HS02004802HS02004478       129.179       242.438         5.736         0.620         3.345
  HS02004478WS02006287       371.473       713.047        11.422         1.102         6.227
  HS02004817HS02004807       106.350       195.821         5.401         0.604         3.200
  HS02004807HS02004802       129.404       242.791         5.769         0.625         3.366
  YS02001759YS02001757       514.506       967.096        10.081         0.700         4.911
  YS02001762YS02001759       194.447       363.417         4.109         0.286         2.030
  YS02001765YS02001762       194.798       364.740         4.136         0.289         2.046
  YS02001770YS02001767       194.214       365.494         3.914         0.256         1.899
  YS02001774YS02001770       227.738       446.822         4.398         0.290         2.125
  YS02001779YS02001774       226.462       444.296         4.458         0.301         2.169
  YS02001649YS02001757       382.128       692.414         7.572         0.537         3.617
  YS02001767YS02001765       195.576       366.765         4.168         0.291         2.063
  YS02006561YS02001783      1215.841      2282.940        25.093         1.861        12.440
  YS02001783YS02001784      1215.762      2282.843        25.089         1.861        12.438
  YS02001784YS02001785      1223.309      2294.980        25.818         1.952        12.894
  YS02001788YS02001790      1224.010      2296.186        25.893         1.961        12.941
  YS02001790YS02001791      1225.147      2298.137        25.996         1.974        13.005
  YS02001791YS02001793      1225.214      2298.310        25.993         1.974        13.004
  YS02001910YS02001907       471.953       880.176        10.963         0.823         5.573
  YS02001786YS02001788      1223.581      2295.484        25.847         1.956        12.912
  YS02001915YS02001910       471.982       880.203        10.918         0.816         5.543
  YS02001918YS02001915       228.324       407.865         5.943         0.526         3.161
  YS02001923YS02001920       205.194       369.647         3.911         0.275         1.898
  YS02001926YS02001923       203.597       366.931         3.826         0.266         1.848
  YS02001929YS02001926       203.113       366.112         3.786         0.261         1.823
  YS02001920YS02001918       225.892       402.912         5.870         0.520         3.121
  YS02001629YS02163301        89.149       157.653         1.895         0.123         0.885
  YS02001619YS02001622       214.054       395.435         4.354         0.287         2.039
  YS02001622YS02001625       212.973       393.739         4.328         0.285         2.027
  YS02001625YS02001629        89.826       158.790         1.911         0.124         0.892
  YS02163301YS02001633        89.797       158.778         1.905         0.124         0.890
  YS02163601YS02164001       468.521       855.498         9.057         0.649         4.345
  YS02164001YS02001641       468.227       854.999         9.041         0.648         4.336
  YS02001641YS02001644       468.854       856.015         9.047         0.648         4.338
  YS02001647YS02001649       422.870       771.620         8.322         0.589         3.963
  YS02006553YS02006556       814.059      1517.113        17.167         1.302         8.598
  YS02006556YS02006558       814.173      1517.332        17.136         1.298         8.577
  YSB6556YSB1171              30.760        60.592         0.612         0.050         0.308
  YS02001907YS02006553       814.100      1517.199        17.185         1.305         8.610
  YS02006558YS02006561      1215.805      2282.850        25.092         1.861        12.440
  YS02001633YS02163601       469.114       856.397         9.034         0.645         4.327
  YS02001644YS02001647       430.120       785.384         8.448         0.599         4.024
  YS02001745YS02001748       294.753       559.382         5.838         0.362         2.802
  YS02001748YS02001751       294.215       558.454         5.850         0.365         2.812
  YS02001751YS02001754       293.313       556.978         5.834         0.364         2.805
  YS02001754YS02001757       294.188       558.316         6.003         0.387         2.914
  YS02001882YS02001884         3.987         7.022         0.078         0.006         0.038
  YS02001884YS02001887         7.092        12.709         0.136         0.011         0.068
  YS02001890YS02001895       547.186      1038.811        10.065         0.759         4.909
  YS02001895YS02001898       547.068      1038.691        10.059         0.758         4.906
  YS02001898YS02001901       546.923      1038.427        10.056         0.758         4.904
  YS02001901YS02001904       546.731      1038.170        10.061         0.759         4.908
  YS02001904YS02001907       547.051      1038.668        10.117         0.766         4.944
  YS02001887YS02001890       560.831      1065.463        10.346         0.782         5.051
  YS02001652YS02001649       252.020       473.485         5.034         0.363         2.363
  YS02001655YS02001652       252.813       474.715         5.055         0.365         2.373
  YS02001658YS02001655       252.622       474.397         4.974         0.353         2.319
  YS02001661YS02001658       253.479       475.819         4.994         0.355         2.328
  YS02001664YS02001661       266.416       496.903         5.290         0.375         2.463
  YSB1154YSB6556              30.344        59.932         0.564         0.044         0.277
  YSB1174YSB1171              20.753        41.084         0.409         0.033         0.203
  YSB1171HS02004479           52.965       103.994         1.157         0.100         0.596
  HS02004881HS02006253        60.471       121.039         1.291         0.093         0.631
  YS02001793JiankangQianchi      1225.530      2299.010        25.996         1.974        13.005
  YS02001757CaochengTiaoxuchi      1030.129      1912.663        20.369         1.393         9.827
  WSF200WS02003060           375.929       718.312        11.405         1.094         6.200
  1                          490.593       893.279        24.087         2.701        14.188
  CC-Pump-1                  419.013       785.945         8.157         0.557         3.929
  CC-Pump-2                  419.013       785.945         8.157         0.557         3.929
  JK-Pump-1                  267.930       518.163         5.171         0.373         2.525
  JK-Pump-2                  609.987      1179.683        11.774         0.849         5.748
  XR-Pump-1                  324.937       547.518        24.776         2.996        15.189
  XR-Pump-2                  324.937       547.518        24.776         2.996        15.189
  XR-Pump-3                  324.937       547.518        24.776         2.996        15.189
  XR-Pump-4                  324.937       547.518        24.776         2.996        15.189
  3                          745.306      1404.352        14.621         1.005         7.054
  5                          415.265       799.864         8.112         0.582         3.951
  6                         1356.438      2288.815       102.948        12.443        63.102
  

  Analysis begun on:  Thu Jul  8 15:16:44 2021
  Analysis ended on:  Thu Jul  8 15:16:47 2021
  Total elapsed time: 00:00:03