
  EPA STORM WATER MANAGEMENT MODEL - VERSION 5.1 (Build 5.3.0.dev0)
  --------------------------------------------------------------

  WARNING 04: minimum elevation drop used for Conduit WS02004404WS02004405
  WARNING 03: negative offset ignored for Link YS02001904YS02001907
  
  *********************************************************
  NOTE: The summary statistics displayed in this report are
  based on results found at every computational time step,  
  not just on results from each reporting time step.
  *********************************************************
  
  ****************
  Analysis Options
  ****************
  Flow Units ............... LPS
  Process Models:
    Rainfall/Runoff ........ YES
    RDII ................... NO
    Snowmelt ............... NO
    Groundwater ............ NO
    Flow Routing ........... YES
    Ponding Allowed ........ NO
    Water Quality .......... YES
  Infiltration Method ...... HORTON
  Flow Routing Method ...... DYNWAVE
  Surcharge Method ......... EXTRAN
  Starting Date ............ 08/28/2015 08:00:00
  Ending Date .............. 08/28/2015 16:00:00
  Antecedent Dry Days ...... 8.0
  Report Time Step ......... 00:01:00
  Wet Time Step ............ 00:01:00
  Dry Time Step ............ 00:01:00
  Routing Time Step ........ 5.00 sec
  Variable Time Step ....... YES
  Maximum Trials ........... 8
  Number of Threads ........ 4
  Head Tolerance ........... 0.001500 m
  
  
  **************************        Volume         Depth
  Runoff Quantity Continuity     hectare-m            mm
  **************************     ---------       -------
  Total Precipitation ......         5.417        11.860
  Evaporation Loss .........         0.000         0.000
  Infiltration Loss ........         0.972         2.128
  Surface Runoff ...........         3.630         7.947
  Final Storage ............         0.817         1.788
  Continuity Error (%) .....        -0.018
  
  
  **************************           COD            SS            TN            TP         NH4-N
  Runoff Quality Continuity             kg            kg            kg            kg            kg
  **************************    ----------    ----------    ----------    ----------    ----------
  Initial Buildup ..........     41378.656     70582.865      1804.177       168.684      1032.807
  Surface Buildup ..........        21.757        40.198         2.427         0.221         1.412
  Wet Deposition ...........         0.000         0.000         0.000         0.000         0.000
  Sweeping Removal .........         0.000         0.000         0.000         0.000         0.000
  Infiltration Loss ........        85.149       160.322         1.619         0.113         0.770
  BMP Removal ..............         0.000         0.000         0.000         0.000         0.000
  Surface Runoff ...........      3104.028      5735.036        60.177         4.073        28.563
  Remaining Buildup ........     38210.135     64725.637      1744.786       164.717      1004.876
  Continuity Error (%) .....         0.003         0.003         0.001         0.001         0.001
  
  
  **************************        Volume        Volume
  Flow Routing Continuity        hectare-m      10^6 ltr
  **************************     ---------     ---------
  Dry Weather Inflow .......         0.630         6.296
  Wet Weather Inflow .......         3.629        36.286
  Groundwater Inflow .......         0.000         0.000
  RDII Inflow ..............         0.000         0.000
  External Inflow ..........         0.105         1.045
  External Outflow .........         2.950        29.500
  Flooding Loss ............         1.487        14.873
  Evaporation Loss .........         0.000         0.000
  Exfiltration Loss ........         0.000         0.000
  Initial Stored Volume ....         0.076         0.761
  Final Stored Volume ......         0.437         4.374
  Continuity Error (%) .....        -9.821
  
  
  **************************           COD            SS            TN            TP         NH4-N
  Quality Routing Continuity            kg            kg            kg            kg            kg
  **************************    ----------    ----------    ----------    ----------    ----------
  Dry Weather Inflow .......      1573.993      2518.389       151.103        18.888        94.440
  Wet Weather Inflow .......      3103.644      5734.452        60.168         4.073        28.559
  Groundwater Inflow .......         0.000         0.000         0.000         0.000         0.000
  RDII Inflow ..............         0.000         0.000         0.000         0.000         0.000
  External Inflow ..........       187.321       299.713        17.983         2.248        11.239
  External Outflow .........      2717.249      4744.989       150.880        17.256        90.041
  Flooding Loss ............      1168.781      2154.373        31.490         2.837        16.750
  Exfiltration Loss ........         0.000         0.000         0.000         0.000         0.000
  Mass Reacted .............         0.000         0.000         0.000         0.000         0.000
  Initial Stored Mass ......         0.000         0.000         0.000         0.000         0.000
  Final Stored Mass ........       345.584       581.777        16.549         1.794         9.658
  Continuity Error (%) .....        13.018        12.527        13.232        13.177        13.251
  
  
  *************************
  Highest Continuity Errors
  *************************
  Node JK-storage (-37.97%)
  Node HS02004842 (14.80%)
  Node YS02001884 (11.07%)
  Node WS02003059 (6.56%)
  Node YS02001774 (3.23%)
  
  
  ***************************
  Time-Step Critical Elements
  ***************************
  Link YS02001793JiankangQianchi (61.68%)
  Link WS02006280WS02006229 (16.50%)
  Link YS02006556YS02006558 (4.44%)
  Link WS02006252WS02006251 (2.52%)
  Link YS02001791YS02001793 (1.87%)
  
  
  ********************************
  Highest Flow Instability Indexes
  ********************************
  Link WS02006252WS02006251 (55)
  Link YS02001619YS02001622 (47)
  Link YS02163601YS02164001 (47)
  Link YS02001629YS02163301 (45)
  Link YS02163301YS02001633 (44)
  
  
  *************************
  Routing Time Step Summary
  *************************
  Minimum Time Step           :     0.49 sec
  Average Time Step           :     2.12 sec
  Maximum Time Step           :     5.00 sec
  Percent in Steady State     :    -0.00
  Average Iterations per Step :     5.05
  Percent Not Converging      :    35.01
  
  
  ***************************
  Subcatchment Runoff Summary
  ***************************
  
  ------------------------------------------------------------------------------------------------------------------------------
                            Total      Total      Total      Total     Imperv       Perv      Total       Total     Peak  Runoff
                           Precip      Runon       Evap      Infil     Runoff     Runoff     Runoff      Runoff   Runoff   Coeff
  Subcatchment                 mm         mm         mm         mm         mm         mm         mm    10^6 ltr      LPS
  ------------------------------------------------------------------------------------------------------------------------------
  sub0                      11.86       0.00       0.00       0.61      10.99       0.22      11.21        0.01     2.31   0.945
  sub1                      11.86       0.00       0.00       1.04      10.47       0.27      10.74        0.07    16.09   0.905
  sub2                      11.86       0.00       0.00       4.00       7.39       0.38       7.78        0.07    15.42   0.656
  sub3                      11.86       0.00       0.00       4.09       7.35       0.30       7.65        0.17    34.60   0.645
  sub4                      11.86       0.00       0.00       1.11      10.32       0.19      10.51        0.22    41.58   0.886
  sub5                      11.86       0.00       0.00       0.64      10.94       0.19      11.13        0.13    28.41   0.938
  sub7                      11.86       0.00       0.00       0.81      10.73       0.26      10.99        0.04     8.89   0.926
  sub8                      11.86       0.00       0.00       0.82      10.72       0.25      10.97        0.07    16.44   0.925
  sub9                      11.86       0.00       0.00       0.82      10.72       0.25      10.97        0.05    12.31   0.925
  sub10                     11.86       0.00       0.00       0.73      10.83       0.22      11.04        0.12    27.78   0.931
  sub11                     11.86       0.00       0.00       0.72      10.84       0.23      11.07        0.13    30.38   0.933
  sub12                     11.86       0.00       0.00       1.17      10.27       0.37      10.64        0.09    23.20   0.897
  sub14                     11.86       0.00       0.00       0.82      10.72       0.24      10.96        0.10    24.26   0.924
  sub15                     11.86       0.00       0.00       3.07       8.24       0.49       8.73        0.15    34.06   0.736
  sub16                     11.86       0.00       0.00       3.26       7.91       0.65       8.56        0.09    21.55   0.722
  sub17                     11.86       0.00       0.00       3.18       8.02       0.62       8.64        0.07    17.70   0.729
  sub22                     11.86       0.00       0.00       4.51       6.72       0.59       7.31        0.46   106.14   0.616
  sub23                     11.86       0.00       0.00       3.79       7.43       0.60       8.03        0.38    89.15   0.677
  sub60                     11.86       0.00       0.00       1.36       8.66       0.06       8.72        2.64   299.31   0.735
  sub61                     11.86       0.00       0.00       1.93       8.76       0.09       8.84        2.73   350.50   0.746
  sub62                     11.86       0.00       0.00       0.88       9.54       0.07       9.61        2.95   364.68   0.810
  sub63                     11.86       0.00       0.00       3.35       7.65       0.09       7.75        2.34   317.98   0.653
  sub64                     11.86       0.00       0.00       1.72       8.31       0.06       8.37        2.55   285.89   0.706
  sub65                     11.86       0.00       0.00       1.48       8.45       0.06       8.51        2.62   291.36   0.718
  sub66                     11.86       0.00       0.00       3.38       7.12       0.06       7.18        2.20   257.01   0.605
  sub67                     11.86       0.00       0.00       0.86      10.02       0.09      10.12        3.12   436.41   0.853
  sub68                     11.86       0.00       0.00       1.57       9.20       0.09       9.29        2.86   379.93   0.784
  sub69                     11.86       0.00       0.00       1.65       9.50       0.13       9.64        2.25   346.04   0.812
  sub70                     11.86       9.84       0.00       6.77      12.87       0.60      13.47        3.08   370.34   0.621
  sub71                     11.86       0.00       0.00       0.88       9.30       0.06       9.37        2.21   261.05   0.790
  sub72                     11.86       0.00       0.00       0.80       7.51       0.03       7.55        1.54   139.19   0.636
  1                         11.86      13.11       0.00       1.40      14.45       3.92      18.36        4.31   379.11   0.735
  2                         11.86       0.00       0.00       3.09       2.83       1.63       4.45        1.78   214.63   0.376
  
  
  ****************************
  Subcatchment Washoff Summary
  ****************************
  
  ------------------------------------------------------------------------------------------
                                 COD            SS            TN            TP         NH4-N
  Subcatchment                    kg            kg            kg            kg            kg
  ------------------------------------------------------------------------------------------
  sub0                         2.208         4.243         0.037         0.003         0.018
  sub1                         9.451        18.666         0.176         0.012         0.085
  sub2                         5.736        11.006         0.121         0.008         0.056
  sub3                        14.113        26.857         0.293         0.020         0.135
  sub4                        21.769        43.416         0.431         0.026         0.207
  sub5                        21.704        42.272         0.385         0.029         0.186
  sub7                         4.821         9.653         0.091         0.006         0.044
  sub8                         7.237        14.820         0.144         0.008         0.069
  sub9                         6.192        12.507         0.119         0.008         0.057
  sub10                       17.847        35.201         0.326         0.023         0.157
  sub11                       17.357        34.610         0.324         0.022         0.156
  sub12                       14.663        28.667         0.264         0.020         0.127
  sub14                       13.236        26.485         0.250         0.017         0.120
  sub15                       16.729        32.102         0.322         0.023         0.151
  sub16                       10.699        20.474         0.203         0.015         0.095
  sub17                        9.827        18.641         0.181         0.014         0.085
  sub22                       51.006        95.869         0.969         0.073         0.452
  sub23                       30.174        58.744         0.643         0.042         0.295
  sub60                      200.593       370.665         4.019         0.245         1.925
  sub61                      249.101       458.663         4.652         0.317         2.238
  sub62                      259.557       486.172         5.088         0.320         2.441
  sub63                      184.131       334.041         3.712         0.260         1.719
  sub64                      250.012       445.481         4.614         0.334         2.200
  sub65                      256.031       458.099         4.757         0.338         2.272
  sub66                      144.593       259.823         2.994         0.194         1.397
  sub67                      386.300       717.639         6.920         0.507         3.342
  sub68                      274.674       511.081         5.270         0.353         2.516
  sub69                      248.178       467.332         4.656         0.326         2.224
  sub70                      412.533       779.067         8.255         0.571         3.863
  sub71                      171.252       323.491         3.542         0.203         1.694
  sub72                      133.561       234.071         2.508         0.170         1.206
  1                          284.514       540.592         5.811         0.402         2.690
  2                           34.938        60.985         1.012         0.061         0.430
  ------------------------------------------------------------------------------------------
  System                    3764.739      6981.434        73.088         4.969        34.651
  
  
  ******************
  Node Depth Summary
  ******************
  
  ---------------------------------------------------------------------------------
                                 Average  Maximum  Maximum  Time of Max    Reported
                                   Depth    Depth      HGL   Occurrence   Max Depth
  Node                 Type       Meters   Meters   Meters  days hr:min      Meters
  ---------------------------------------------------------------------------------
  WS02001211           JUNCTION     0.31     0.34     5.18     0  02:34        0.34
  WS02001212           JUNCTION     0.09     0.13     5.19     0  02:33        0.13
  WS02001213           JUNCTION     0.34     0.48     5.24     0  02:32        0.48
  WS02003069           JUNCTION     0.20     0.34     4.93     0  02:33        0.34
  WS02003072           JUNCTION     0.26     0.42     4.79     0  02:34        0.42
  WS02003073           JUNCTION     0.14     0.24     4.31     0  02:35        0.24
  WS02003060           JUNCTION     0.18     0.31     5.24     0  02:32        0.31
  WS02003066           JUNCTION     0.15     0.26     5.82     0  02:31        0.26
  WS02003059           JUNCTION     0.42     0.55     5.24     0  02:32        0.55
  WS02003067           JUNCTION     0.40     0.64     5.96     0  02:31        0.64
  WS02004401           JUNCTION     0.47     0.74     6.74     0  02:27        0.74
  WS02004402           JUNCTION     0.50     0.77     6.73     0  02:28        0.77
  WS02004403           JUNCTION     0.53     0.79     6.72     0  02:28        0.79
  WS02004404           JUNCTION     0.60     0.87     6.72     0  02:28        0.87
  WS02004406           JUNCTION     0.62     0.87     6.70     0  02:28        0.87
  WS02004409           JUNCTION     0.28     0.56     6.33     0  02:30        0.56
  WS02004410           JUNCTION     0.31     0.58     6.30     0  02:30        0.58
  WS02004411           JUNCTION     0.33     0.60     6.28     0  02:31        0.60
  WS02004412           JUNCTION     0.35     0.61     6.25     0  02:31        0.61
  WS02004413           JUNCTION     0.50     0.78     6.25     0  02:31        0.78
  WS02004405           JUNCTION     0.60     0.86     6.71     0  02:28        0.86
  WS02006109           JUNCTION     0.53     0.81     7.42     0  02:24        0.81
  WS02006110           JUNCTION     0.55     0.80     7.38     0  02:24        0.80
  WS02006111           JUNCTION     0.13     0.24     6.95     0  02:24        0.24
  WS02006112           JUNCTION     0.61     0.92     6.80     0  02:27        0.92
  WS02006113           JUNCTION     0.20     0.38     7.27     0  02:24        0.38
  WS02006115           JUNCTION     0.36     0.63     6.77     0  02:27        0.63
  WS02006116           JUNCTION     0.44     0.72     6.76     0  02:27        0.71
  WS02006230           JUNCTION     0.42     0.73     7.47     0  02:23        0.73
  WS02006231           JUNCTION     0.19     0.34     7.47     0  02:24        0.34
  WS02006232           JUNCTION     0.29     0.42     7.46     0  02:24        0.42
  WS02006234           JUNCTION     0.17     0.29     7.45     0  02:24        0.29
  WS02006235           JUNCTION     0.19     0.26     7.43     0  02:25        0.26
  WS02006238           JUNCTION     0.23     0.30     7.44     0  02:25        0.30
  WS02006240           JUNCTION     0.19     0.24     7.54     0  02:26        0.24
  WS02006242           JUNCTION     0.26     0.32     7.59     0  02:26        0.32
  WS02006243           JUNCTION     0.16     0.21     7.63     0  02:25        0.21
  WS02006245           JUNCTION     0.18     0.23     7.72     0  02:24        0.23
  WS02006247           JUNCTION     0.21     0.26     7.76     0  02:24        0.26
  WS02006248           JUNCTION     0.17     0.22     7.80     0  02:23        0.22
  WS02006249           JUNCTION     0.21     0.26     7.86     0  02:23        0.26
  WS02006239           JUNCTION     0.20     0.26     7.47     0  02:26        0.26
  WS02006251           JUNCTION     0.20     0.25     7.92     0  02:22        0.25
  WS02006252           JUNCTION     0.51     0.59     8.84     0  03:44        0.59
  WS02006253           JUNCTION     0.23     0.32     7.96     0  02:22        0.32
  WS02006256           JUNCTION     2.06     2.35     9.28     0  00:00        2.35
  WS02004138           JUNCTION     0.19     0.20     7.45     0  00:00        0.19
  WS02004139           JUNCTION     0.24     0.26     5.17     0  02:35        0.26
  WS02004407           JUNCTION     0.13     0.25     6.57     0  02:28        0.25
  WS02006228           JUNCTION     0.50     0.81     7.46     0  02:24        0.81
  WS02006229           JUNCTION     0.47     0.78     7.48     0  02:23        0.78
  WS02006280           JUNCTION     0.08     0.21     8.48     0  02:23        0.21
  WS02006284           JUNCTION     0.38     0.57     8.97     0  02:23        0.57
  WS02006287           JUNCTION     0.12     0.31     9.26     0  02:22        0.31
  WSF200               JUNCTION     0.12     0.24     5.48     0  02:31        0.24
  HS02004901           JUNCTION     0.14     0.30    10.13     0  02:21        0.30
  HS02004881           JUNCTION     0.01     0.04     9.07     0  02:22        0.04
  HS02004876           JUNCTION     0.05     0.13     9.16     0  02:22        0.13
  HS02004870           JUNCTION     0.02     0.07     9.36     0  02:22        0.07
  HS02004862           JUNCTION     0.02     0.08     9.47     0  02:23        0.08
  HS02004856           JUNCTION     0.08     0.13     9.56     0  02:22        0.13
  HS02004852           JUNCTION     0.01     0.05     9.56     0  02:23        0.05
  HS02004848           JUNCTION     0.01     0.05     9.65     0  02:22        0.05
  HS02004842           JUNCTION     0.34     0.38     9.65     0  02:22        0.38
  HS02004837           JUNCTION     0.03     0.07     9.65     0  02:22        0.07
  HS02004830           JUNCTION     0.04     0.09     9.56     0  02:23        0.09
  HS02004824           JUNCTION     0.03     0.06     9.47     0  02:24        0.06
  HS02004817           JUNCTION     0.45     0.62     9.46     0  02:23        0.62
  HS02004807           JUNCTION     0.14     0.29     9.46     0  02:23        0.29
  HS02004802           JUNCTION     0.17     0.32     9.45     0  02:23        0.32
  HS02004799           JUNCTION     0.14     0.36     9.58     0  02:21        0.36
  HS02004792           JUNCTION     0.04     0.16     9.68     0  02:21        0.16
  HS02004788           JUNCTION     0.03     0.11    10.01     0  02:21        0.11
  HS02004785           JUNCTION     0.06     0.19    10.09     0  02:21        0.19
  HS02004777           JUNCTION     0.16     0.32    10.12     0  02:21        0.32
  HS02004770           JUNCTION     0.13     0.29    10.13     0  02:21        0.29
  HS02004480           JUNCTION     0.10     0.29     9.53     0  02:21        0.29
  HS02004479           JUNCTION     0.14     0.33     9.53     0  02:21        0.33
  HS02004478           JUNCTION     0.07     0.20     9.43     0  02:22        0.20
  YS02001745           JUNCTION     0.61     0.87     8.39     0  03:09        0.87
  YS02001748           JUNCTION     0.97     1.32     8.40     0  03:19        1.31
  YS02001751           JUNCTION     1.14     1.53     8.41     0  03:19        1.52
  YS02001754           JUNCTION     1.39     1.81     8.42     0  03:20        1.79
  YS02001762           JUNCTION     1.58     2.03     8.43     0  03:43        2.01
  YS02001765           JUNCTION     1.54     1.98     8.43     0  03:21        1.96
  YS02001767           JUNCTION     1.50     1.94     8.43     0  03:21        1.91
  YS02001770           JUNCTION     1.50     1.92     8.41     0  03:46        1.89
  YS02001774           JUNCTION     1.57     1.97     8.40     0  03:46        1.96
  YS02001779           JUNCTION     1.32     1.68     8.37     0  02:36        1.68
  YS02001882           JUNCTION     0.55     1.60     8.32     0  02:39        1.60
  YS02001884           JUNCTION     0.64     1.70     8.32     0  02:44        1.70
  YS02001759           JUNCTION     1.62     2.07     8.43     0  03:43        2.05
  YS02001887           JUNCTION     0.72     1.78     8.32     0  02:41        1.78
  YS02001890           JUNCTION     0.75     1.80     8.31     0  02:49        1.80
  YS02001898           JUNCTION     0.52     1.55     8.28     0  02:39        1.55
  YS02001901           JUNCTION     0.63     1.67     8.28     0  02:40        1.66
  YS02001904           JUNCTION     0.61     1.63     8.26     0  02:40        1.63
  YS02001907           JUNCTION     0.93     1.96     8.25     0  02:38        1.96
  YS02001910           JUNCTION     0.73     1.77     8.27     0  02:39        1.76
  YS02001915           JUNCTION     0.53     1.57     8.29     0  02:39        1.56
  YS02001918           JUNCTION     0.28     1.22     8.29     0  02:39        1.22
  YS02001619           JUNCTION     1.12     1.49     8.42     0  02:26        1.48
  YS02001629           JUNCTION     1.46     1.85     8.40     0  02:25        1.84
  YS02001641           JUNCTION     1.56     1.94     8.37     0  02:34        1.93
  YS02001644           JUNCTION     1.56     1.92     8.35     0  02:33        1.92
  YS02001652           JUNCTION     1.40     2.08     8.67     0  03:50        1.92
  YS02001655           JUNCTION     1.17     2.06     8.91     0  03:50        1.74
  YS02001920           JUNCTION     0.38     1.29     8.30     0  02:39        1.28
  YS02001923           JUNCTION     0.22     1.04     8.30     0  02:39        1.03
  YS02001926           JUNCTION     0.26     0.86     8.30     0  02:39        0.85
  YS02001929           JUNCTION     0.15     0.61     8.30     0  02:39        0.60
  YS02001658           JUNCTION     0.92     2.00     9.14     0  03:50        1.46
  YS02001661           JUNCTION     0.72     1.94     9.34     0  03:50        1.21
  YS02001664           JUNCTION     0.29     0.57     8.50     0  03:54        0.56
  YS02001622           JUNCTION     1.14     1.51     8.41     0  02:26        1.50
  YS02001633           JUNCTION     1.55     1.95     8.40     0  02:35        1.94
  YS02001649           JUNCTION     1.59     2.05     8.44     0  02:42        2.05
  YS02001757           JUNCTION     1.71     2.16     8.42     0  03:43        2.14
  YS02001895           JUNCTION     0.51     1.55     8.30     0  02:42        1.55
  YS02001625           JUNCTION     1.42     1.78     8.38     0  02:21        1.78
  YS02163301           JUNCTION     1.49     1.89     8.40     0  02:34        1.88
  YS02163601           JUNCTION     1.60     1.99     8.39     0  02:34        1.98
  YS02164001           JUNCTION     1.54     1.92     8.38     0  02:34        1.91
  YS02001647           JUNCTION     1.39     1.80     8.41     0  03:19        1.79
  YSB1154              JUNCTION     0.27     0.48     9.54     0  02:21        0.48
  YSB6556              JUNCTION     0.17     0.37     9.54     0  02:21        0.37
  YSB1174              JUNCTION     0.23     0.43     9.54     0  02:21        0.43
  YSB1171              JUNCTION     0.42     0.63     9.54     0  02:21        0.63
  YS02006553           JUNCTION     0.93     1.96     8.24     0  02:54        1.95
  YS02006561           JUNCTION     0.28     0.85     7.51     0  02:51        0.85
  YS02006556           JUNCTION     0.90     1.90     8.21     0  02:46        1.90
  YS02006558           JUNCTION     0.94     1.93     8.20     0  02:49        1.92
  YS02001783           JUNCTION     0.47     1.20     7.34     0  02:46        1.20
  YS02001784           JUNCTION     0.48     1.10     7.16     0  02:57        1.09
  YS02001786           JUNCTION     0.40     0.91     6.94     0  03:13        0.91
  YS02001788           JUNCTION     0.30     0.78     6.76     0  03:13        0.78
  YS02001790           JUNCTION     0.36     0.96     6.60     0  03:14        0.95
  YS02001791           JUNCTION     0.24     0.94     6.41     0  03:15        0.94
  YS02001793           JUNCTION     0.20     1.46     6.29     0  03:15        1.45
  WSC                  OUTFALL      0.14     0.24     0.91     0  02:35        0.24
  3                    OUTFALL      0.00     0.00     7.16     0  00:00        0.00
  4                    OUTFALL      0.00     0.00     7.67     0  00:00        0.00
  5                    OUTFALL      0.00     0.00     4.91     0  00:00        0.00
  JK-storage           STORAGE      0.66     5.46     6.26     0  03:14        5.46
  CC-storage           STORAGE      0.93     1.34     8.34     0  03:21        1.34
  XR-storage           STORAGE      5.37     7.72     5.72     0  03:00        7.72
  
  
  *******************
  Node Inflow Summary
  *******************
  
  -------------------------------------------------------------------------------------------------
                                  Maximum  Maximum                  Lateral       Total        Flow
                                  Lateral    Total  Time of Max      Inflow      Inflow     Balance
                                   Inflow   Inflow   Occurrence      Volume      Volume       Error
  Node                 Type           LPS      LPS  days hr:min    10^6 ltr    10^6 ltr     Percent
  -------------------------------------------------------------------------------------------------
  WS02001211           JUNCTION      7.35    55.09     0  00:02       0.212       0.374       2.658
  WS02001212           JUNCTION      0.00    44.32     0  02:33           0        0.26       0.907
  WS02001213           JUNCTION      0.00    44.46     0  02:32           0       0.263       3.637
  WS02003069           JUNCTION      0.32   367.06     0  02:33     0.00922        3.33       0.195
  WS02003072           JUNCTION      0.00   366.96     0  02:33           0        3.33       0.308
  WS02003073           JUNCTION      1.82   368.74     0  02:34      0.0524        3.37       0.272
  WS02003060           JUNCTION     16.53   411.40     0  02:31       0.476        3.51       0.177
  WS02003066           JUNCTION      0.00   394.85     0  02:31           0        2.93       0.064
  WS02003059           JUNCTION      0.00    63.07     0  01:54           0       0.279       7.022
  WS02003067           JUNCTION      0.00   394.84     0  02:31           0        2.93       0.168
  WS02004401           JUNCTION      0.00   397.10     0  02:26           0        3.06       0.393
  WS02004402           JUNCTION      0.00   396.70     0  02:26           0        3.04       0.394
  WS02004403           JUNCTION      0.00   396.49     0  02:26           0        3.03       0.378
  WS02004404           JUNCTION      0.16   396.52     0  02:27     0.00467        3.03       0.305
  WS02004406           JUNCTION      0.00   396.50     0  02:28           0           3       0.756
  WS02004409           JUNCTION      0.00   396.47     0  02:28           0        2.98       0.156
  WS02004410           JUNCTION      0.00   395.95     0  02:29           0        2.97       0.219
  WS02004411           JUNCTION      0.00   395.49     0  02:29           0        2.97       0.257
  WS02004412           JUNCTION      0.00   395.17     0  02:30           0        2.96       0.322
  WS02004413           JUNCTION      0.00   394.95     0  02:30           0        2.95       0.551
  WS02004405           JUNCTION      0.04   396.52     0  02:27      0.0011        3.02       0.471
  WS02006109           JUNCTION      1.23   382.54     0  02:23      0.0354        3.04       0.405
  WS02006110           JUNCTION      0.00   382.53     0  02:23           0        3.03       0.364
  WS02006111           JUNCTION      0.00   390.69     0  02:24           0        3.02       0.043
  WS02006112           JUNCTION     17.70   399.88     0  02:24      0.0741        3.09       0.532
  WS02006113           JUNCTION      0.00   382.51     0  02:24           0        3.02       0.094
  WS02006115           JUNCTION      0.00   398.63     0  02:24           0        3.07       0.328
  WS02006116           JUNCTION      0.00   397.76     0  02:25           0        3.06       0.258
  WS02006230           JUNCTION     10.28    70.28     0  02:22       0.296        1.06       0.553
  WS02006231           JUNCTION      0.00    70.06     0  02:23           0       0.795       0.239
  WS02006232           JUNCTION      0.00    69.90     0  02:24           0         0.8       0.685
  WS02006234           JUNCTION      0.00    69.82     0  02:24           0       0.802       0.121
  WS02006235           JUNCTION      0.00   447.30     0  02:25           0        7.92       0.042
  WS02006238           JUNCTION      0.00    88.20     0  02:27           0         1.6       0.160
  WS02006240           JUNCTION      0.00    88.16     0  02:26           0         1.6       0.241
  WS02006242           JUNCTION      0.00    88.19     0  02:25           0         1.6       0.367
  WS02006243           JUNCTION      0.00    88.22     0  02:24           0         1.6       0.145
  WS02006245           JUNCTION      0.00    88.23     0  02:24           0        1.61       0.256
  WS02006247           JUNCTION      0.00    88.24     0  02:23           0        1.61       0.212
  WS02006248           JUNCTION      0.00    88.25     0  02:23           0        1.61       0.089
  WS02006249           JUNCTION      0.00    88.29     0  02:22           0        1.62       0.329
  WS02006239           JUNCTION      0.00    88.15     0  02:27           0         1.6       0.211
  WS02006251           JUNCTION      0.08   493.85     0  02:22     0.00222        9.36       0.035
  WS02006252           JUNCTION      0.00   400.00     0  01:49           0        8.95       0.006
  WS02006253           JUNCTION      2.31    93.20     0  02:22     0.00907       0.414       0.634
  WS02006256           JUNCTION      0.00   983.00     0  00:00           0        13.5      -0.010
  WS02004138           JUNCTION      0.00   380.00     0  00:00           0        10.9       0.058
  WS02004139           JUNCTION      0.32   431.94     0  02:34     0.00924        11.2       0.078
  WS02004407           JUNCTION      0.00   396.48     0  02:28           0        2.98       0.075
  WS02006228           JUNCTION      0.00   381.32     0  02:23           0        3.02       0.269
  WS02006229           JUNCTION      0.00   441.30     0  02:23           0         3.1       0.286
  WS02006280           JUNCTION      0.00   441.30     0  02:23           0        2.15       0.003
  WS02006284           JUNCTION      0.10   441.28     0  02:23     0.00275        2.15       0.054
  WS02006287           JUNCTION      0.00   441.15     0  02:22           0        2.15       0.032
  WSF200               JUNCTION      0.00   394.85     0  02:31           0        2.93       0.037
  HS02004901           JUNCTION     21.55    21.55     0  02:18      0.0896      0.0898       1.996
  HS02004881           JUNCTION      8.89    91.09     0  02:22       0.037       0.405       0.015
  HS02004876           JUNCTION     16.09    82.53     0  02:22      0.0714       0.368       0.146
  HS02004870           JUNCTION     16.44    66.60     0  02:22      0.0701       0.297       0.036
  HS02004862           JUNCTION     15.62    50.61     0  02:22      0.0782       0.227       0.076
  HS02004856           JUNCTION     12.31    35.04     0  02:22      0.0527        0.15       0.966
  HS02004852           JUNCTION      0.00    23.03     0  02:22           0      0.0974       0.055
  HS02004848           JUNCTION     34.60    34.60     0  02:24       0.172       0.172       0.026
  HS02004842           JUNCTION      0.00    12.13     0  02:33           0      0.0879      17.364
  HS02004837           JUNCTION     34.13    45.25     0  02:22       0.305        0.38       0.214
  HS02004830           JUNCTION      0.15    45.37     0  02:22     0.00432        0.37       0.334
  HS02004824           JUNCTION     41.63    86.88     0  02:24       0.221       0.589       0.091
  HS02004817           JUNCTION      0.60    87.47     0  02:24      0.0173       0.606       2.828
  HS02004807           JUNCTION     30.38   116.53     0  02:23       0.129       0.718       0.606
  HS02004802           JUNCTION      0.00   116.78     0  02:24           0       0.715       0.554
  HS02004799           JUNCTION     24.26   275.05     0  02:21       0.104        1.24       0.216
  HS02004792           JUNCTION    106.42   251.07     0  02:21        0.47        1.13       0.035
  HS02004788           JUNCTION     35.73   145.41     0  02:21       0.198       0.666       0.059
  HS02004785           JUNCTION      0.15   109.88     0  02:21     0.00432       0.469       0.103
  HS02004777           JUNCTION      0.03   109.91     0  02:20    0.000864       0.469       1.117
  HS02004770           JUNCTION     89.15   110.33     0  02:19       0.383       0.471       0.660
  HS02004480           JUNCTION      0.00   325.29     0  02:21           0        1.45       0.079
  HS02004479           JUNCTION      0.00    50.40     0  02:22           0       0.228       0.322
  HS02004478           JUNCTION      0.00   441.13     0  02:22           0        2.15       0.015
  YS02001745           JUNCTION    299.31   299.31     0  03:01        2.64        2.64       0.195
  YS02001748           JUNCTION      0.04   445.69     0  02:23      0.0013        2.64       0.656
  YS02001751           JUNCTION      0.01   314.24     0  02:58    0.000317        2.62       0.874
  YS02001754           JUNCTION      0.26   313.54     0  02:58     0.00749        2.61       0.934
  YS02001762           JUNCTION      0.00   363.52     0  02:40           0        2.17       0.955
  YS02001765           JUNCTION      0.00   362.62     0  02:40           0        2.18       1.099
  YS02001767           JUNCTION      0.54   362.06     0  02:41      0.0154         2.2       1.636
  YS02001770           JUNCTION    364.84   364.84     0  02:51        2.96        2.96       1.025
  YS02001774           JUNCTION      0.00   259.82     0  03:01           0        0.76       3.337
  YS02001779           JUNCTION      0.01   261.28     0  03:01    0.000144       0.728       2.081
  YS02001882           JUNCTION      0.00    13.23     0  02:22           0       0.018      13.576
  YS02001884           JUNCTION      0.00    26.12     0  02:22           0      0.0538      12.453
  YS02001759           JUNCTION    350.54   710.52     0  02:40        2.73        4.87       0.460
  YS02001887           JUNCTION    436.86   438.76     0  02:43        3.13        3.16       0.261
  YS02001890           JUNCTION      0.00   438.24     0  02:43           0        3.12       0.287
  YS02001898           JUNCTION      0.00   438.41     0  02:40           0         3.1       0.098
  YS02001901           JUNCTION      0.00   438.34     0  02:40           0         3.1       0.217
  YS02001904           JUNCTION      0.00   438.18     0  02:40           0         3.1       0.192
  YS02001907           JUNCTION      0.00   848.96     0  02:40           0        6.91       0.348
  YS02001910           JUNCTION      0.00   425.91     0  03:07           0        3.82       0.302
  YS02001915           JUNCTION    261.07   425.87     0  03:07        2.21        3.83       0.154
  YS02001918           JUNCTION      0.00   190.99     0  03:07           0        1.61       0.116
  YS02001619           JUNCTION    257.01   257.01     0  02:58         2.2         2.2       0.520
  YS02001629           JUNCTION      0.00   233.04     0  02:32           0        1.71       1.600
  YS02001641           JUNCTION      0.00   488.69     0  02:33           0        4.23       0.476
  YS02001644           JUNCTION    285.93   970.84     0  03:12        2.55        7.87       0.324
  YS02001652           JUNCTION      0.00   369.37     0  02:42           0        2.35       0.957
  YS02001655           JUNCTION      0.15   368.01     0  02:42     0.00443        2.37       1.062
  YS02001920           JUNCTION      2.87   190.51     0  03:07      0.0827        1.62       0.181
  YS02001923           JUNCTION      0.04   171.37     0  03:08     0.00109        1.54       0.054
  YS02001926           JUNCTION      0.05   148.20     0  03:08      0.0015        1.54       0.201
  YS02001929           JUNCTION    139.19   139.19     0  03:01        1.54        1.54       0.035
  YS02001658           JUNCTION      0.00   423.07     0  02:24           0        2.39       0.887
  YS02001661           JUNCTION      0.00   702.83     0  02:42           0        2.65      -1.712
  YS02001664           JUNCTION    317.98   343.12     0  02:39        2.34        2.65       0.138
  YS02001622           JUNCTION      0.00   257.79     0  02:57           0        2.19       1.422
  YS02001633           JUNCTION    291.56   488.62     0  02:32        2.62        4.29       0.740
  YS02001649           JUNCTION      0.00  1035.02     0  02:32           0        5.54       0.659
  YS02001757           JUNCTION      0.00  1962.85     0  02:33           0        11.8       0.775
  YS02001895           JUNCTION      0.00   437.87     0  02:40           0        3.11       0.156
  YS02001625           JUNCTION      0.00   257.30     0  02:58           0        2.16       1.792
  YS02163301           JUNCTION      0.00   233.44     0  02:32           0        1.69       1.404
  YS02163601           JUNCTION      0.11   488.94     0  02:33     0.00317        4.25       0.700
  YS02164001           JUNCTION      0.00   488.88     0  02:33           0        4.23       0.449
  YS02001647           JUNCTION      0.00   743.21     0  02:33           0        4.09       0.676
  YSB1154              JUNCTION     28.41    28.41     0  02:20       0.126       0.127       1.152
  YSB6556              JUNCTION      0.00    28.29     0  02:20           0       0.128       0.987
  YSB1174              JUNCTION     23.20    23.20     0  02:17       0.093      0.0935       1.392
  YSB1171              JUNCTION      0.00    50.46     0  02:21           0       0.227       2.873
  YS02006553           JUNCTION      0.00   786.86     0  03:05           0        6.81       0.225
  YS02006561           JUNCTION      0.00  1139.66     0  02:41           0        9.64       0.011
  YS02006556           JUNCTION      0.00   786.54     0  03:04           0        6.81       0.158
  YS02006558           JUNCTION    380.81  1140.43     0  02:41        2.88        9.67       0.051
  YS02001783           JUNCTION      0.00  1139.44     0  02:41           0        9.64       0.023
  YS02001784           JUNCTION      1.06  1140.99     0  02:41      0.0305        9.67       0.037
  YS02001786           JUNCTION      0.06  1140.79     0  02:41     0.00162        9.66       0.036
  YS02001788           JUNCTION      0.07  1140.55     0  02:41     0.00204        9.66       0.021
  YS02001790           JUNCTION      0.15  1155.48     0  02:40     0.00446        9.67       0.031
  YS02001791           JUNCTION      0.00  1268.19     0  02:50           0        9.66      -0.003
  YS02001793           JUNCTION      0.00  1221.12     0  02:55           0        9.66       0.003
  WSC                  OUTFALL       0.00   368.66     0  02:35           0        3.36       0.000
  3                    OUTFALL       0.00   447.30     0  02:25           0        7.22       0.000
  4                    OUTFALL       0.00   405.09     0  02:22           0        7.74       0.000
  5                    OUTFALL       0.00   431.93     0  02:35           0        11.2       0.000
  JK-storage           STORAGE       0.00  1239.95     0  02:52           0        9.81     -27.522
  CC-storage           STORAGE       0.00  1962.47     0  02:33           0        11.4      -0.245
  XR-storage           STORAGE     779.00   779.00     0  03:01        11.9        12.5      -3.860
  
  
  **********************
  Node Surcharge Summary
  **********************
  
  Surcharging occurs when water rises above the top of the highest conduit.
  ---------------------------------------------------------------------
                                               Max. Height   Min. Depth
                                   Hours       Above Crown    Below Rim
  Node                 Type      Surcharged         Meters       Meters
  ---------------------------------------------------------------------
  WS02006252           JUNCTION        6.21          0.193        0.907
  WS02006256           JUNCTION        6.47          2.050        0.000
  YS02001748           JUNCTION        4.50          0.241        0.949
  YS02001751           JUNCTION        5.70          0.529        0.671
  YS02001754           JUNCTION        5.77          0.760        0.390
  YS02001762           JUNCTION        5.97          1.030        0.120
  YS02001765           JUNCTION        5.95          0.981        0.119
  YS02001767           JUNCTION        5.93          0.938        0.092
  YS02001770           JUNCTION        5.89          0.886        0.034
  YS02001774           JUNCTION        5.97          0.974        0.076
  YS02001779           JUNCTION        5.77          0.680        0.000
  YS02001882           JUNCTION        0.92          0.605        0.225
  YS02001884           JUNCTION        0.96          0.644        0.226
  YS02001759           JUNCTION        5.99          1.067        0.143
  YS02001887           JUNCTION        1.05          0.732        0.218
  YS02001890           JUNCTION        1.08          0.755        0.005
  YS02001898           JUNCTION        0.87          0.520        0.220
  YS02001901           JUNCTION        1.00          0.669        0.201
  YS02001904           JUNCTION        0.98          0.634        0.216
  YS02001907           JUNCTION        1.69          0.950        0.000
  YS02001910           JUNCTION        1.13          0.767        0.333
  YS02001915           JUNCTION        0.90          0.569        0.431
  YS02001918           JUNCTION        0.57          0.222        0.588
  YS02001619           JUNCTION        5.61          0.493        0.117
  YS02001629           JUNCTION        5.61          0.469        0.001
  YS02001641           JUNCTION        5.96          0.938        0.162
  YS02001644           JUNCTION        5.96          0.920        0.000
  YS02001652           JUNCTION        5.79          1.046        0.084
  YS02001655           JUNCTION        5.72          1.056        0.144
  YS02001920           JUNCTION        0.62          0.291        0.849
  YS02001658           JUNCTION        4.63          0.996        0.304
  YS02001661           JUNCTION        0.16          0.866        0.524
  YS02001622           JUNCTION        5.71          0.508        0.112
  YS02001633           JUNCTION        5.94          0.930        0.130
  YS02001649           JUNCTION        5.98          1.050        0.000
  YS02001757           JUNCTION        6.07          1.163        0.047
  YS02001895           JUNCTION        0.89          0.555        0.195
  YS02001625           JUNCTION        5.82          0.780        0.000
  YS02163301           JUNCTION        5.93          0.887        0.143
  YS02163601           JUNCTION        5.98          0.994        0.086
  YS02164001           JUNCTION        5.95          0.922        0.178
  YS02001647           JUNCTION        5.80          0.800        0.100
  YS02006553           JUNCTION        1.77          0.956        0.234
  YS02006561           JUNCTION        0.49          0.054        1.096
  YS02006556           JUNCTION        1.36          0.859        0.491
  YS02006558           JUNCTION        1.32          0.831        0.569
  YS02001783           JUNCTION        1.07          0.402        1.198
  YS02001784           JUNCTION        1.02          0.297        1.193
  YS02001786           JUNCTION        0.79          0.110        1.320
  YS02001790           JUNCTION        0.21          0.157        1.000
  YS02001791           JUNCTION        0.21          0.136        1.784
  YS02001793           JUNCTION        0.36          0.461        2.139
  
  
  *********************
  Node Flooding Summary
  *********************
  
  Flooding refers to all water that overflows a node, whether it ponds or not.
  --------------------------------------------------------------------------
                                                             Total   Maximum
                                 Maximum   Time of Max       Flood    Ponded
                        Hours       Rate    Occurrence      Volume     Depth
  Node                 Flooded       LPS   days hr:min    10^6 ltr    Meters
  --------------------------------------------------------------------------
  WS02006256              5.00    978.40      0  00:00       7.312     0.000
  YS02001779              2.11    261.05      0  03:01       0.708     0.000
  YS02001907              0.41     90.69      0  02:40       0.086     0.000
  YS02001644              3.09    970.57      0  03:12       4.865     0.000
  YS02001649              0.01     29.90      0  03:50       0.000     0.000
  YS02001625              1.11    176.73      0  02:58       0.413     0.000
  XR-storage              2.80    398.96      0  03:01       1.487     0.000
  
  
  **********************
  Storage Volume Summary
  **********************
  
  --------------------------------------------------------------------------------------------------
                         Average     Avg  Evap Exfil       Maximum     Max    Time of Max    Maximum
                          Volume    Pcnt  Pcnt  Pcnt        Volume    Pcnt     Occurrence    Outflow
  Storage Unit           1000 m3    Full  Loss  Loss       1000 m3    Full    days hr:min        LPS
  --------------------------------------------------------------------------------------------------
  JK-storage               0.033      11     0     0         0.274      94       0  03:14     983.00
  CC-storage               2.579      16     0     0         3.746      24       0  03:21     400.00
  XR-storage               0.644      70     0     0         0.926     100       0  03:00     380.00
  
  
  ***********************
  Outfall Loading Summary
  ***********************
  
  ---------------------------------------------------------------------------------------------------------------------------------
                         Flow       Avg       Max       Total         Total         Total         Total         Total         Total
                         Freq      Flow      Flow      Volume           COD            SS            TN            TP         NH4-N
  Outfall Node           Pcnt       LPS       LPS    10^6 ltr            kg            kg            kg            kg            kg
  ---------------------------------------------------------------------------------------------------------------------------------
  WSC                   99.97    139.20    368.66       3.359       422.557       752.670        22.917         2.625        13.656
  3                     99.98    287.28    447.30       7.217       292.159       550.898         5.728         0.407         2.787
  4                     99.97    304.54    405.09       7.741       658.702      1215.578        13.098         0.902         6.326
  5                     99.99    390.79    431.93      11.183      1343.909      2225.962       109.144        13.322        67.277
  ---------------------------------------------------------------------------------------------------------------------------------
  System                99.98   1121.80   1633.07      29.500      2717.328      4745.108       150.887        17.257        90.046
  
  
  ********************
  Link Flow Summary
  ********************
  
  -----------------------------------------------------------------------------
                                 Maximum  Time of Max   Maximum    Max/    Max/
                                  |Flow|   Occurrence   |Veloc|    Full    Full
  Link                 Type          LPS  days hr:min     m/sec    Flow   Depth
  -----------------------------------------------------------------------------
  WS02003066WSF200     CONDUIT    394.85     0  02:31      2.66    0.07    0.19
  WS02006287WS02006284 CONDUIT    441.18     0  02:23      2.08    0.20    0.31
  WS02006284WS02006280 CONDUIT    441.30     0  02:23      2.32    0.18    0.29
  WS02006280WS02006229 CONDUIT    441.30     0  02:23      3.75    0.09    0.21
  WS02006229WS02006228 CONDUIT    381.32     0  02:23      0.76    1.26    0.97
  WS02006256WS02006235 CONDUIT    289.81     0  02:37      4.46    3.07    0.94
  WS02006253WS02006251 CONDUIT     93.23     0  02:22      0.66    0.28    0.39
  WS02006252WS02006251 CONDUIT    401.00     0  03:31      3.19    1.47    1.00
  WS02006251WS02006249 CONDUIT     88.29     0  02:22      0.70    0.25    0.36
  WS02006249WS02006248 CONDUIT     88.25     0  02:23      0.80    0.48    0.33
  WS02006248WS02006247 CONDUIT     88.24     0  02:23      0.79    0.19    0.34
  WS02006247WS02006245 CONDUIT     88.23     0  02:24      0.75    0.70    0.35
  WS02006245WS02006243 CONDUIT     88.22     0  02:24      0.88    0.26    0.31
  WS02006243WS02006242 CONDUIT     88.19     0  02:25      0.77    0.19    0.36
  WS02006242WS02006240 CONDUIT     88.16     0  02:26      0.62    0.35    0.40
  WS02006240WS02006239 CONDUIT     88.15     0  02:27      0.80    0.28    0.33
  WS02006239WS02006238 CONDUIT     88.20     0  02:27      0.72    0.28    0.39
  WS02006238WS02006235 CONDUIT     88.33     0  02:28      1.17    0.20    0.40
  WS02006235WS02006234 CONDUIT     69.83     0  02:24      0.54    0.74    0.37
  WS02006234WS02006232 CONDUIT     69.82     0  02:24      0.82    0.14    0.51
  WS02006232WS02006231 CONDUIT     69.90     0  02:24      0.33    0.15    0.54
  WS02006231WS02006230 CONDUIT     70.06     0  02:23      0.60    1.06    0.49
  WS02006230WS02006229 CONDUIT     60.00     0  02:22      0.40    1.34    1.00
  WS02006228WS02006109 CONDUIT    381.31     0  02:23      0.76    1.67    0.99
  WS02006116WS02004401 CONDUIT    397.10     0  02:26      0.65    0.55    0.73
  WS02006115WS02006116 CONDUIT    397.76     0  02:25      0.83    0.51    0.64
  WS02006113WS02006111 CONDUIT    390.69     0  02:24      2.19    0.47    0.39
  WS02006112WS02006115 CONDUIT    398.63     0  02:24      0.62    0.24    0.77
  WS02006111WS02006112 CONDUIT    383.12     0  02:24      1.12    0.18    0.64
  WS02006110WS02006113 CONDUIT    382.51     0  02:24      0.97    0.35    0.73
  WS02006109WS02006110 CONDUIT    382.53     0  02:23      0.79    0.74    0.93
  WS02004411WS02004412 CONDUIT    395.17     0  02:30      0.86    0.56    0.60
  WS02004401WS02004402 CONDUIT    396.70     0  02:26      0.62    0.48    0.76
  WS02004413WS02003067 CONDUIT    394.84     0  02:31      0.94    0.17    0.53
  WS02004412WS02004413 CONDUIT    394.95     0  02:30      0.83    0.26    0.69
  WS02004410WS02004411 CONDUIT    395.49     0  02:29      0.82    0.54    0.59
  WS02004409WS02004410 CONDUIT    395.95     0  02:29      0.86    0.51    0.57
  WS02004407WS02004409 CONDUIT    396.47     0  02:28      1.32    0.14    0.41
  WS02004406WS02004407 CONDUIT    396.48     0  02:28      0.87    0.18    0.56
  WS02004405WS02004406 CONDUIT    396.50     0  02:28      0.55    0.78    0.87
  WS02004404WS02004405 CONDUIT    396.48     0  02:27      0.55    3.88    0.87
  WS02004403WS02004404 CONDUIT    396.36     0  02:27      0.57    0.29    0.83
  WS02004402WS02004403 CONDUIT    396.49     0  02:26      0.60    0.57    0.78
  WS02004139WS02001211 CONDUIT     51.62     0  02:34      0.48    0.07    0.21
  WS02004138WS02004139 CONDUIT    396.29     0  00:00      3.67    0.08    0.20
  WS02003067WS02003066 CONDUIT    394.85     0  02:31      1.01    0.13    0.38
  WS02001213WS02003059 CONDUIT     44.46     0  02:32      0.16    0.07    0.51
  WS02001212WS02001213 CONDUIT     44.32     0  02:33      0.65    0.07    0.14
  WS02001211WS02001212 CONDUIT     44.26     0  02:33      0.32    0.03    0.23
  WS02003072WS02003073 CONDUIT    366.92     0  02:34      1.25    0.79    0.31
  WS02003069WS02003072 CONDUIT    366.96     0  02:33      1.20    0.18    0.32
  WS02003060WS02003069 CONDUIT    366.74     0  02:33      1.48    0.14    0.27
  WS02003059WS02003060 CONDUIT     63.07     0  01:54      0.56    0.04    0.43
  HS02004901HS02004770 CONDUIT     21.26     0  02:20      0.07    0.08    0.43
  HS02004876HS02004881 CONDUIT     82.52     0  02:22      0.98    0.88    0.12
  HS02004870HS02004876 CONDUIT     66.58     0  02:22      0.67    0.04    0.14
  HS02004842HS02004848 CONDUIT     12.13     0  02:33      0.06    0.01    0.31
  HS02004837HS02004842 CONDUIT     12.41     0  02:33      0.42    0.01    0.32
  HS02004830HS02004837 CONDUIT     45.22     0  02:22      0.58    0.05    0.11
  HS02004824HS02004830 CONDUIT     45.36     0  02:23      0.60    0.06    0.11
  HS02004817HS02004824 CONDUIT     86.87     0  02:24      0.26    0.04    0.49
  HS02004770HS02004777 CONDUIT    109.88     0  02:20      0.36    0.20    0.44
  HS02004799HS02004480 CONDUIT    274.95     0  02:21      0.85    0.35    0.46
  HS02004792HS02004799 CONDUIT    251.01     0  02:21      0.97    0.15    0.37
  HS02004788HS02004792 CONDUIT    145.37     0  02:21      1.08    0.10    0.19
  HS02004785HS02004788 CONDUIT    109.85     0  02:21      0.72    0.83    0.22
  HS02004777HS02004785 CONDUIT    109.73     0  02:21      0.43    0.14    0.36
  HS02004480HS02004478 CONDUIT    325.30     0  02:21      1.30    1.37    0.36
  HS02004479HS02004480 CONDUIT     50.47     0  02:22      0.29    0.05    0.44
  HS02004862HS02004870 CONDUIT     50.60     0  02:23      0.67    0.05    0.11
  HS02004848HS02004852 CONDUIT     23.03     0  02:22      0.45    0.03    0.07
  HS02004856HS02004862 CONDUIT     35.01     0  02:22      0.50    0.03    0.10
  HS02004852HS02004856 CONDUIT     23.06     0  02:23      0.25    0.03    0.13
  HS02004802HS02004478 CONDUIT    117.15     0  02:25      0.45    0.10    0.38
  HS02004478WS02006287 CONDUIT    441.15     0  02:22      1.79    0.12    0.27
  HS02004817HS02004807 CONDUIT     87.98     0  02:26      0.20    0.05    0.65
  HS02004807HS02004802 CONDUIT    116.78     0  02:24      0.39    0.22    0.43
  YS02001759YS02001757 CONDUIT    710.60     0  02:40      0.90    0.50    1.00
  YS02001762YS02001759 CONDUIT    364.20     0  02:40      0.46    0.42    1.00
  YS02001765YS02001762 CONDUIT    363.52     0  02:40      0.46    0.34    1.00
  YS02001770YS02001767 CONDUIT    361.53     0  02:41      0.46    1.43    1.00
  YS02001774YS02001770 CONDUIT    259.82     0  03:01      0.33    0.17    1.00
  YS02001779YS02001774 CONDUIT    261.28     0  03:01      0.33    0.13    1.00
  YS02001649YS02001757 CONDUIT   1035.61     0  02:32      1.32    0.63    1.00
  YS02001767YS02001765 CONDUIT    362.62     0  02:40      0.46    0.46    1.00
  YS02006561YS02001783 CONDUIT   1139.44     0  02:41      2.27    0.59    1.00
  YS02001783YS02001784 CONDUIT   1139.93     0  02:41      2.27    1.57    1.00
  YS02001784YS02001785 CONDUIT   1140.73     0  02:41      2.27    2.65    1.00
  YS02001788YS02001790 CONDUIT   1155.32     0  02:40      2.71    0.85    0.99
  YS02001790YS02001791 CONDUIT   1268.19     0  02:50      3.41    1.38    1.00
  YS02001791YS02001793 CONDUIT   1221.12     0  02:55      6.74    0.52    1.00
  YS02001910YS02001907 CONDUIT    425.67     0  03:08      0.54    0.24    1.00
  YS02001786YS02001788 CONDUIT   1140.48     0  02:41      2.45    2.20    0.99
  YS02001915YS02001910 CONDUIT    425.91     0  03:07      0.56    0.21    1.00
  YS02001918YS02001915 CONDUIT    208.49     0  03:19      0.44    0.11    1.00
  YS02001923YS02001920 CONDUIT    187.64     0  03:07      0.71    0.08    1.00
  YS02001926YS02001923 CONDUIT    171.33     0  03:08      0.84    0.24    0.84
  YS02001929YS02001926 CONDUIT    148.15     0  03:08      0.89    0.07    0.73
  YS02001920YS02001918 CONDUIT    190.99     0  03:07      0.69    0.18    1.00
  YS02001629YS02163301 CONDUIT    233.44     0  02:32      0.30    0.29    1.00
  YS02001619YS02001622 CONDUIT    257.79     0  02:57      0.61    0.38    1.00
  YS02001622YS02001625 CONDUIT    257.30     0  02:58      0.33    0.14    1.00
  YS02001625YS02001629 CONDUIT    233.04     0  02:32      0.30    0.11    1.00
  YS02163301YS02001633 CONDUIT    233.43     0  02:32      0.30    0.22    1.00
  YS02163601YS02164001 CONDUIT    488.88     0  02:33      0.62    0.43    1.00
  YS02164001YS02001641 CONDUIT    488.69     0  02:33      0.62    0.67    1.00
  YS02001641YS02001644 CONDUIT    489.48     0  02:33      0.62    1.58    1.00
  YS02001647YS02001649 CONDUIT    742.25     0  02:33      0.95    0.39    1.00
  YS02006553YS02006556 CONDUIT    786.54     0  03:04      1.00    0.67    1.00
  YS02006556YS02006558 CONDUIT    787.79     0  03:05      1.00    0.62    1.00
  YSB6556YSB1171       CONDUIT     28.30     0  02:22      0.10    0.03    0.71
  YS02001907YS02006553 CONDUIT    786.86     0  03:05      0.87    0.93    1.00
  YS02006558YS02006561 CONDUIT   1139.66     0  02:41      4.03    2.52    1.00
  YS02001633YS02163601 CONDUIT    488.83     0  02:33      0.62    0.51    1.00
  YS02001644YS02001647 CONDUIT    743.21     0  02:33      0.95    0.44    1.00
  YS02001745YS02001748 CONDUIT    445.64     0  02:23      1.49    0.17    0.94
  YS02001748YS02001751 CONDUIT    314.23     0  02:58      1.05    0.16    1.00
  YS02001751YS02001754 CONDUIT    313.28     0  02:58      0.88    0.15    1.00
  YS02001754YS02001757 CONDUIT    313.96     0  02:58      0.40    0.13    1.00
  YS02001882YS02001884 CONDUIT     14.19     0  03:51      0.12    0.02    1.00
  YS02001884YS02001887 CONDUIT     26.12     0  02:22      0.08    0.03    1.00
  YS02001890YS02001895 CONDUIT    437.87     0  02:40      0.56    0.20    1.00
  YS02001895YS02001898 CONDUIT    438.41     0  02:40      0.60    0.76    1.00
  YS02001898YS02001901 CONDUIT    438.34     0  02:40      0.56    0.28    1.00
  YS02001901YS02001904 CONDUIT    438.18     0  02:40      0.56    0.68    1.00
  YS02001904YS02001907 CONDUIT    438.80     0  02:40      0.56    0.15    1.00
  YS02001887YS02001890 CONDUIT    438.24     0  02:43      0.56    0.75    1.00
  YS02001652YS02001649 CONDUIT    371.75     0  02:42      0.58    0.18    1.00
  YS02001655YS02001652 CONDUIT    369.37     0  02:42      0.94    0.18    1.00
  YS02001658YS02001655 CONDUIT    367.85     0  02:42      1.20    0.16    1.00
  YS02001661YS02001658 CONDUIT    423.07     0  02:24      1.58    0.17    1.00
  YS02001664YS02001661 CONDUIT    702.83     0  02:42      1.69    0.22    0.72
  YSB1154YSB6556       CONDUIT     28.29     0  02:20      0.16    0.05    0.60
  YSB1174YSB1171       CONDUIT     22.69     0  02:18      0.08    0.03    0.72
  YSB1171HS02004479    CONDUIT     50.40     0  02:22      0.54    0.03    0.57
  HS02004881HS02006253 CONDUIT     91.09     0  02:22      2.31    0.02    0.06
  YS02001793JiankangQianchi CONDUIT   1239.95     0  02:52     20.68    0.10    1.00
  YS02001757CaochengTiaoxuchi CONDUIT   1962.47     0  02:33      3.11    0.86    1.00
  WSF200WS02003060     CONDUIT    394.87     0  02:31      2.01    0.09    0.23
  1                    CONDUIT    368.66     0  02:35      2.52    0.13    0.24
  CC-Pump-1            PUMP       200.00     0  01:49              1.00
  CC-Pump-2            PUMP       200.00     0  01:49              1.00
  JK-Pump-1            PUMP       300.00     0  00:00              1.00
  JK-Pump-2            PUMP       683.00     0  00:00              1.00
  XR-Pump-1            PUMP        95.00     0  00:00              1.00
  XR-Pump-2            PUMP        95.00     0  00:00              1.00
  XR-Pump-3            PUMP        95.00     0  00:00              1.00
  XR-Pump-4            PUMP        95.00     0  00:00              1.00
  3                    WEIR       405.09     0  02:22                      0.25
  5                    WEIR       447.30     0  02:25                      0.26
  6                    WEIR       431.93     0  02:35                      0.26
  
  
  ***************************
  Flow Classification Summary
  ***************************
  
  -------------------------------------------------------------------------------------
                      Adjusted    ---------- Fraction of Time in Flow Class ---------- 
                       /Actual         Up    Down  Sub   Sup   Up    Down  Norm  Inlet 
  Conduit               Length    Dry  Dry   Dry   Crit  Crit  Crit  Crit  Ltd   Ctrl  
  -------------------------------------------------------------------------------------
  WS02003066WSF200        1.00   0.15  0.00  0.00  0.00  0.85  0.00  0.00  0.77  0.00
  WS02006287WS02006284    1.00   0.05  0.02  0.00  0.51  0.42  0.00  0.00  0.65  0.00
  WS02006284WS02006280    1.00   0.06  0.00  0.00  0.00  0.00  0.00  0.94  0.00  0.00
  WS02006280WS02006229    1.00   0.06  0.00  0.00  0.00  0.00  0.00  0.94  0.00  0.00
  WS02006229WS02006228    1.00   0.00  0.00  0.00  0.99  0.00  0.00  0.01  0.00  0.00
  WS02006256WS02006235    1.00   0.00  0.00  0.00  0.09  0.91  0.00  0.00  0.01  0.00
  WS02006253WS02006251    1.00   0.02  0.03  0.00  0.88  0.00  0.07  0.00  0.00  0.00
  WS02006252WS02006251    1.00   0.12  0.00  0.00  0.00  0.00  0.88  0.00  0.00  0.00
  WS02006251WS02006249    1.00   0.00  0.00  0.00  1.00  0.00  0.00  0.00  0.20  0.00
  WS02006249WS02006248    1.00   0.00  0.07  0.00  0.86  0.00  0.08  0.00  0.00  0.00
  WS02006248WS02006247    1.00   0.07  0.00  0.00  0.91  0.00  0.00  0.02  0.02  0.00
  WS02006247WS02006245    1.00   0.07  0.00  0.00  0.89  0.00  0.00  0.05  0.00  0.00
  WS02006245WS02006243    1.00   0.07  0.00  0.00  0.85  0.00  0.00  0.07  0.00  0.00
  WS02006243WS02006242    1.00   0.08  0.00  0.00  0.89  0.00  0.00  0.04  0.70  0.00
  WS02006242WS02006240    1.00   0.00  0.08  0.00  0.91  0.00  0.00  0.00  0.21  0.00
  WS02006240WS02006239    1.00   0.00  0.00  0.00  0.90  0.00  0.00  0.09  0.00  0.00
  WS02006239WS02006238    1.00   0.00  0.01  0.00  0.99  0.00  0.00  0.00  0.19  0.00
  WS02006238WS02006235    1.00   0.00  0.00  0.00  1.00  0.00  0.00  0.00  0.00  0.00
  WS02006235WS02006234    1.00   0.08  0.00  0.00  0.89  0.00  0.02  0.01  0.00  0.00
  WS02006234WS02006232    1.00   0.00  0.00  0.00  1.00  0.00  0.00  0.00  0.17  0.00
  WS02006232WS02006231    1.00   0.00  0.00  0.00  0.99  0.00  0.00  0.00  0.00  0.00
  WS02006231WS02006230    1.00   0.00  0.00  0.00  0.30  0.00  0.70  0.00  0.00  0.00
  WS02006230WS02006229    1.00   0.00  0.00  0.00  0.98  0.00  0.00  0.02  0.02  0.00
  WS02006228WS02006109    1.00   0.00  0.00  0.00  1.00  0.00  0.00  0.00  0.00  0.00
  WS02006116WS02004401    1.00   0.05  0.00  0.00  0.95  0.00  0.00  0.00  0.00  0.00
  WS02006115WS02006116    1.00   0.05  0.00  0.00  0.91  0.00  0.00  0.05  0.00  0.00
  WS02006113WS02006111    1.00   0.03  0.00  0.00  0.01  0.96  0.00  0.00  0.09  0.00
  WS02006112WS02006115    1.00   0.03  0.02  0.00  0.95  0.00  0.00  0.00  0.00  0.00
  WS02006111WS02006112    1.00   0.03  0.00  0.00  0.97  0.00  0.00  0.00  0.93  0.00
  WS02006110WS02006113    1.00   0.01  0.02  0.00  0.97  0.00  0.00  0.00  0.00  0.00
  WS02006109WS02006110    1.00   0.00  0.01  0.00  0.99  0.00  0.01  0.00  0.00  0.00
  WS02004411WS02004412    1.00   0.10  0.00  0.00  0.90  0.00  0.00  0.00  0.00  0.00
  WS02004401WS02004402    1.00   0.05  0.00  0.00  0.95  0.00  0.00  0.00  0.04  0.00
  WS02004413WS02003067    1.00   0.11  0.02  0.00  0.00  0.00  0.87  0.00  0.00  0.00
  WS02004412WS02004413    1.00   0.11  0.00  0.00  0.89  0.00  0.00  0.00  0.00  0.00
  WS02004410WS02004411    1.00   0.10  0.00  0.00  0.90  0.00  0.00  0.00  0.00  0.00
  WS02004409WS02004410    1.00   0.10  0.00  0.00  0.90  0.00  0.00  0.00  0.00  0.00
  WS02004407WS02004409    1.00   0.10  0.00  0.00  0.89  0.01  0.00  0.00  0.79  0.00
  WS02004406WS02004407    1.00   0.00  0.10  0.00  0.90  0.00  0.00  0.00  0.00  0.00
  WS02004405WS02004406    1.00   0.00  0.00  0.00  1.00  0.00  0.00  0.00  0.04  0.00
  WS02004404WS02004405    1.00   0.00  0.00  0.00  1.00  0.00  0.00  0.00  0.00  0.00
  WS02004403WS02004404    1.00   0.00  0.05  0.00  0.95  0.00  0.00  0.00  0.04  0.00
  WS02004402WS02004403    1.00   0.05  0.00  0.00  0.95  0.00  0.00  0.00  0.00  0.00
  WS02004139WS02001211    1.00   0.00  0.00  0.00  1.00  0.00  0.00  0.00  0.00  0.00
  WS02004138WS02004139    1.00   0.00  0.00  0.00  0.00  0.25  0.00  0.75  0.18  0.00
  WS02003067WS02003066    1.00   0.13  0.01  0.00  0.86  0.00  0.00  0.00  0.00  0.00
  WS02001213WS02003059    1.00   0.00  0.00  0.00  0.99  0.00  0.00  0.00  0.00  0.00
  WS02001212WS02001213    1.00   0.00  0.00  0.00  0.33  0.00  0.66  0.00  0.00  0.00
  WS02001211WS02001212    1.00   0.00  0.00  0.00  1.00  0.00  0.00  0.00  0.07  0.00
  WS02003072WS02003073    1.00   0.00  0.00  0.00  0.00  0.00  0.00  1.00  0.00  0.00
  WS02003069WS02003072    1.00   0.00  0.00  0.00  1.00  0.00  0.00  0.00  0.98  0.00
  WS02003060WS02003069    1.00   0.00  0.00  0.00  0.98  0.02  0.00  0.00  0.82  0.00
  WS02003059WS02003060    1.00   0.00  0.00  0.00  1.00  0.00  0.00  0.00  0.05  0.00
  HS02004901HS02004770    1.00   0.06  0.00  0.00  0.94  0.00  0.00  0.00  0.00  0.00
  HS02004876HS02004881    1.00   0.01  0.00  0.00  0.85  0.14  0.00  0.00  0.00  0.00
  HS02004870HS02004876    1.00   0.00  0.00  0.00  0.99  0.00  0.00  0.00  0.95  0.00
  HS02004842HS02004848    1.00   0.00  0.06  0.00  0.94  0.00  0.00  0.00  0.58  0.00
  HS02004837HS02004842    1.00   0.00  0.00  0.00  1.00  0.00  0.00  0.00  0.11  0.00
  HS02004830HS02004837    1.00   0.00  0.00  0.00  1.00  0.00  0.00  0.00  0.99  0.00
  HS02004824HS02004830    1.00   0.00  0.00  0.00  1.00  0.00  0.00  0.00  0.00  0.00
  HS02004817HS02004824    1.00   0.00  0.00  0.00  1.00  0.00  0.00  0.00  1.00  0.00
  HS02004770HS02004777    1.00   0.00  0.06  0.00  0.94  0.00  0.00  0.00  0.03  0.00
  HS02004799HS02004480    1.00   0.00  0.02  0.00  0.93  0.00  0.05  0.00  0.00  0.00
  HS02004792HS02004799    1.00   0.00  0.00  0.00  0.99  0.01  0.00  0.00  0.98  0.00
  HS02004788HS02004792    1.00   0.00  0.00  0.00  0.99  0.01  0.00  0.00  0.98  0.00
  HS02004785HS02004788    1.00   0.00  0.00  0.00  1.00  0.00  0.00  0.00  0.00  0.00
  HS02004777HS02004785    1.00   0.00  0.00  0.00  1.00  0.00  0.00  0.00  0.12  0.00
  HS02004480HS02004478    1.00   0.06  0.00  0.00  0.58  0.00  0.00  0.36  0.00  0.00
  HS02004479HS02004480    1.00   0.02  0.00  0.00  0.98  0.00  0.00  0.00  0.11  0.00
  HS02004862HS02004870    1.00   0.00  0.00  0.00  1.00  0.00  0.00  0.00  0.04  0.00
  HS02004848HS02004852    1.00   0.06  0.00  0.00  0.94  0.00  0.00  0.00  0.72  0.00
  HS02004856HS02004862    1.00   0.00  0.08  0.00  0.92  0.00  0.00  0.00  0.83  0.00
  HS02004852HS02004856    1.00   0.06  0.01  0.00  0.94  0.00  0.00  0.00  0.82  0.00
  HS02004802HS02004478    1.00   0.06  0.00  0.00  0.94  0.00  0.00  0.00  0.02  0.00
  HS02004478WS02006287    1.00   0.07  0.00  0.00  0.66  0.27  0.00  0.00  0.67  0.00
  HS02004817HS02004807    1.00   0.00  0.06  0.00  0.94  0.00  0.00  0.00  0.01  0.00
  HS02004807HS02004802    1.00   0.06  0.00  0.00  0.94  0.00  0.00  0.01  0.00  0.00
  YS02001759YS02001757    1.00   0.00  0.00  0.00  1.00  0.00  0.00  0.00  0.15  0.00
  YS02001762YS02001759    1.00   0.00  0.00  0.00  1.00  0.00  0.00  0.00  0.03  0.00
  YS02001765YS02001762    1.00   0.00  0.00  0.00  1.00  0.00  0.00  0.00  0.14  0.00
  YS02001770YS02001767    1.00   0.00  0.00  0.00  1.00  0.00  0.00  0.00  0.00  0.00
  YS02001774YS02001770    1.00   0.00  0.06  0.00  0.94  0.00  0.00  0.00  0.03  0.00
  YS02001779YS02001774    1.00   0.00  0.00  0.00  1.00  0.00  0.00  0.00  0.18  0.00
  YS02001649YS02001757    1.00   0.00  0.00  0.00  1.00  0.00  0.00  0.00  0.16  0.00
  YS02001767YS02001765    1.00   0.00  0.00  0.00  1.00  0.00  0.00  0.00  0.00  0.00
  YS02006561YS02001783    1.00   0.08  0.00  0.00  0.23  0.68  0.00  0.00  0.49  0.00
  YS02001783YS02001784    1.00   0.00  0.08  0.00  0.92  0.00  0.00  0.00  0.00  0.00
  YS02001784YS02001785    1.00   0.00  0.00  0.00  1.00  0.00  0.00  0.00  0.17  0.00
  YS02001788YS02001790    1.00   0.00  0.00  0.00  0.19  0.81  0.00  0.00  0.48  0.00
  YS02001790YS02001791    1.00   0.00  0.00  0.00  0.05  0.95  0.00  0.00  0.63  0.00
  YS02001791YS02001793    1.00   0.00  0.00  0.00  0.06  0.94  0.00  0.00  0.01  0.00
  YS02001910YS02001907    1.00   0.00  0.00  0.00  0.99  0.00  0.00  0.01  0.12  0.00
  YS02001786YS02001788    1.00   0.00  0.00  0.00  0.26  0.74  0.00  0.00  0.00  0.00
  YS02001915YS02001910    1.00   0.00  0.00  0.00  0.99  0.01  0.00  0.00  0.16  0.00
  YS02001918YS02001915    1.00   0.00  0.00  0.00  0.99  0.01  0.00  0.00  0.58  0.00
  YS02001923YS02001920    1.00   0.00  0.00  0.00  1.00  0.00  0.00  0.00  0.84  0.00
  YS02001926YS02001923    1.00   0.00  0.03  0.00  0.15  0.00  0.81  0.00  0.00  0.00
  YS02001929YS02001926    1.00   0.00  0.06  0.00  0.94  0.00  0.00  0.00  0.78  0.00
  YS02001920YS02001918    1.00   0.00  0.00  0.00  1.00  0.00  0.00  0.00  0.00  0.00
  YS02001629YS02163301    1.00   0.07  0.01  0.00  0.93  0.00  0.00  0.00  0.00  0.00
  YS02001619YS02001622    1.00   0.06  0.00  0.00  0.94  0.00  0.00  0.00  0.00  0.00
  YS02001622YS02001625    1.00   0.06  0.00  0.00  0.94  0.00  0.00  0.00  0.05  0.00
  YS02001625YS02001629    1.00   0.06  0.03  0.00  0.88  0.00  0.03  0.00  0.00  0.00
  YS02163301YS02001633    1.00   0.00  0.07  0.00  0.93  0.00  0.00  0.00  0.00  0.00
  YS02163601YS02164001    1.00   0.00  0.04  0.00  0.96  0.00  0.00  0.00  0.00  0.00
  YS02164001YS02001641    1.00   0.01  0.03  0.00  0.96  0.00  0.00  0.00  0.06  0.00
  YS02001641YS02001644    1.00   0.00  0.00  0.00  1.00  0.00  0.00  0.00  0.00  0.00
  YS02001647YS02001649    1.00   0.00  0.08  0.00  0.92  0.00  0.00  0.00  0.01  0.00
  YS02006553YS02006556    1.00   0.01  0.00  0.00  0.99  0.00  0.00  0.00  0.03  0.00
  YS02006556YS02006558    1.00   0.00  0.00  0.00  1.00  0.00  0.00  0.00  0.00  0.00
  YSB6556YSB1171          1.00   0.02  0.04  0.00  0.94  0.00  0.00  0.00  0.00  0.00
  YS02001907YS02006553    1.00   0.00  0.01  0.00  0.99  0.00  0.00  0.00  0.00  0.00
  YS02006558YS02006561    1.00   0.08  0.00  0.00  0.13  0.79  0.00  0.00  0.52  0.00
  YS02001633YS02163601    1.00   0.00  0.01  0.00  0.99  0.00  0.00  0.00  0.15  0.00
  YS02001644YS02001647    1.00   0.00  0.08  0.00  0.92  0.00  0.00  0.00  0.00  0.00
  YS02001745YS02001748    1.00   0.00  0.00  0.00  0.83  0.01  0.00  0.16  0.04  0.00
  YS02001748YS02001751    1.00   0.00  0.00  0.00  0.94  0.06  0.00  0.00  0.15  0.00
  YS02001751YS02001754    1.00   0.00  0.00  0.00  0.90  0.00  0.00  0.09  0.02  0.00
  YS02001754YS02001757    1.00   0.00  0.00  0.00  1.00  0.00  0.00  0.00  0.18  0.00
  YS02001882YS02001884    1.00   0.07  0.00  0.00  0.93  0.00  0.00  0.00  0.00  0.00
  YS02001884YS02001887    1.00   0.03  0.02  0.00  0.95  0.00  0.00  0.00  0.00  0.00
  YS02001890YS02001895    1.00   0.00  0.07  0.00  0.93  0.00  0.00  0.00  0.00  0.00
  YS02001895YS02001898    1.00   0.07  0.00  0.00  0.91  0.00  0.02  0.00  0.00  0.00
  YS02001898YS02001901    1.00   0.07  0.00  0.00  0.93  0.00  0.00  0.00  0.01  0.00
  YS02001901YS02001904    1.00   0.07  0.00  0.00  0.93  0.00  0.00  0.00  0.00  0.00
  YS02001904YS02001907    1.00   0.00  0.07  0.00  0.93  0.00  0.00  0.00  0.00  0.00
  YS02001887YS02001890    1.00   0.00  0.00  0.00  0.98  0.00  0.01  0.00  0.00  0.00
  YS02001652YS02001649    1.00   0.00  0.00  0.00  0.99  0.00  0.00  0.00  0.16  0.00
  YS02001655YS02001652    1.00   0.00  0.00  0.00  0.91  0.00  0.00  0.09  0.02  0.00
  YS02001658YS02001655    1.00   0.00  0.06  0.00  0.89  0.05  0.00  0.00  0.09  0.00
  YS02001661YS02001658    1.00   0.06  0.00  0.00  0.83  0.11  0.00  0.00  0.06  0.00
  YS02001664YS02001661    1.00   0.06  0.00  0.00  0.85  0.10  0.00  0.00  0.22  0.00
  YSB1154YSB6556          1.00   0.06  0.00  0.00  0.94  0.00  0.00  0.00  0.02  0.00
  YSB1174YSB1171          1.00   0.02  0.02  0.00  0.96  0.00  0.00  0.00  0.00  0.00
  YSB1171HS02004479       1.00   0.02  0.00  0.00  0.97  0.00  0.00  0.01  0.10  0.00
  HS02004881HS02006253    1.00   0.03  0.00  0.00  0.00  0.00  0.00  0.97  0.00  0.00
  YS02001793JiankangQianchi    1.00   0.00  0.00  0.00  0.13  0.87  0.00  0.00  0.08  0.00
  YS02001757CaochengTiaoxuchi    1.00   0.00  0.11  0.00  0.79  0.09  0.00  0.00  0.00  0.00
  WSF200WS02003060        1.00   0.00  0.15  0.00  0.00  0.85  0.00  0.00  0.59  0.00
  1                       1.00   0.00  0.00  0.00  0.00  1.00  0.00  0.00  0.23  0.00
  
  
  *************************
  Conduit Surcharge Summary
  *************************
  
  ----------------------------------------------------------------------------
                                                           Hours        Hours 
                         --------- Hours Full --------   Above Full   Capacity
  Conduit                Both Ends  Upstream  Dnstream   Normal Flow   Limited
  ----------------------------------------------------------------------------
  WS02006229WS02006228        0.01      0.01      0.01      0.84         0.01
  WS02006256WS02006235        0.01      0.01      6.47      6.44         0.01
  WS02006252WS02006251        6.18      6.18      6.21      6.20         0.01
  WS02006231WS02006230        0.01      0.01      0.01      0.12         0.01
  WS02006230WS02006229        0.31      0.31      0.32      3.30         0.01
  WS02006228WS02006109        0.01      0.14      0.01      1.30         0.01
  WS02006111WS02006112        0.01      0.01      1.04      0.01         0.01
  WS02006109WS02006110        0.01      0.01      0.14      0.01         0.01
  WS02004404WS02004405        0.01      0.01      0.01      2.08         0.01
  HS02004480HS02004478        0.01      0.01      0.01      0.58         0.01
  YS02001759YS02001757        5.99      5.99      6.07      0.01         0.01
  YS02001762YS02001759        5.97      5.97      5.99      0.01         0.01
  YS02001765YS02001762        5.95      5.95      5.97      0.01         0.01
  YS02001770YS02001767        5.93      5.93      5.93      0.52         1.07
  YS02001774YS02001770        5.89      5.89      5.97      0.01         0.01
  YS02001779YS02001774        5.77      5.77      5.97      0.01         0.01
  YS02001649YS02001757        5.98      5.98      6.07      0.01         0.01
  YS02001767YS02001765        5.93      5.93      5.95      0.01         0.01
  YS02006561YS02001783        0.49      0.49      1.07      0.01         0.01
  YS02001783YS02001784        1.02      1.07      1.02      1.42         1.02
  YS02001784YS02001785        0.79      1.02      0.79      2.24         0.79
  YS02001788YS02001790        0.01      0.01      0.21      0.01         0.01
  YS02001790YS02001791        0.21      0.21      0.21      0.98         0.21
  YS02001791YS02001793        0.21      0.21      0.41      0.01         0.01
  YS02001910YS02001907        1.13      1.13      1.69      0.01         0.01
  YS02001786YS02001788        0.01      0.79      0.01      1.85         0.01
  YS02001915YS02001910        0.90      0.90      1.13      0.01         0.01
  YS02001918YS02001915        0.57      0.57      0.90      0.01         0.01
  YS02001923YS02001920        0.42      0.42      0.62      0.01         0.01
  YS02001920YS02001918        0.57      0.57      0.62      0.01         0.01
  YS02001629YS02163301        5.92      5.92      5.93      0.01         0.01
  YS02001619YS02001622        5.61      5.61      5.71      0.01         0.01
  YS02001622YS02001625        5.71      5.71      5.82      0.01         0.01
  YS02001625YS02001629        5.61      5.61      5.82      0.01         0.01
  YS02163301YS02001633        5.93      5.93      5.95      0.01         0.01
  YS02163601YS02164001        5.95      5.95      5.98      0.01         0.01
  YS02164001YS02001641        5.95      5.95      5.96      0.01         0.03
  YS02001641YS02001644        5.96      5.96      5.96      1.52         1.63
  YS02001647YS02001649        5.80      5.80      5.98      0.01         0.01
  YS02006553YS02006556        1.36      1.36      1.77      0.01         0.01
  YS02006556YS02006558        1.49      1.49      1.84      0.01         0.01
  YS02001907YS02006553        2.26      2.26      2.46      0.01         0.01
  YS02006558YS02006561        0.79      1.32      0.79      2.10         0.79
  YS02001633YS02163601        5.94      5.94      5.98      0.01         0.01
  YS02001644YS02001647        5.80      5.80      5.96      0.01         0.01
  YS02001745YS02001748        0.01      0.01      4.50      0.01         0.01
  YS02001748YS02001751        4.93      4.93      5.70      0.01         0.01
  YS02001751YS02001754        5.70      5.70      5.77      0.01         0.01
  YS02001754YS02001757        5.79      5.79      6.07      0.01         0.01
  YS02001882YS02001884        0.92      0.92      0.96      0.01         0.01
  YS02001884YS02001887        1.02      1.02      1.05      0.01         0.01
  YS02001890YS02001895        0.89      0.89      1.15      0.01         0.01
  YS02001895YS02001898        0.87      0.87      0.89      0.01         0.01
  YS02001898YS02001901        0.89      0.89      1.00      0.01         0.01
  YS02001901YS02001904        0.98      0.98      1.00      0.01         0.01
  YS02001904YS02001907        0.98      0.98      1.81      0.01         0.01
  YS02001887YS02001890        1.08      1.08      1.11      0.01         0.01
  YS02001652YS02001649        5.81      5.81      5.98      0.01         0.01
  YS02001655YS02001652        5.72      5.72      5.79      0.01         0.01
  YS02001658YS02001655        4.63      4.63      5.72      0.01         0.01
  YS02001661YS02001658        0.13      0.13      4.63      0.01         0.01
  YS02001664YS02001661        0.01      0.01      0.88      0.01         0.01
  YS02001793JiankangQianchi        0.36      0.36      1.12      0.01         0.01
  YS02001757CaochengTiaoxuchi        4.87      4.87      6.07      0.01         0.01
  
  
  ***************
  Pumping Summary
  ***************
  
  ---------------------------------------------------------------------------------------------------------
                                                  Min       Avg       Max     Total     Power    % Time Off
                        Percent   Number of      Flow      Flow      Flow    Volume     Usage    Pump Curve
  Pump                 Utilized   Start-Ups       LPS       LPS       LPS  10^6 ltr     Kw-hr    Low   High
  ---------------------------------------------------------------------------------------------------------
  CC-Pump-1               78.29           1      0.00    197.09    200.00     4.474      8.84    0.0   10.0
  CC-Pump-2               78.29           1      0.00    197.09    200.00     4.474      8.84    0.0   10.0
  JK-Pump-1              100.00           1      0.00    218.67    300.00     5.319    108.73    0.0    0.0
  JK-Pump-2              100.00           1      0.00    351.76    683.00     8.219    158.86    0.0   97.9
  XR-Pump-1              100.00           1      0.00     95.00     95.00     2.736     32.11    0.0    0.0
  XR-Pump-2              100.00           1      0.00     95.00     95.00     2.736     32.11    0.0    0.0
  XR-Pump-3              100.00           1      0.00     95.00     95.00     2.736     32.11    0.0    0.0
  XR-Pump-4              100.00           1      0.00     95.00     95.00     2.736     32.11    0.0    0.0
  
  
  ***************************
  Link Pollutant Load Summary
  ***************************
  
  ------------------------------------------------------------------------------------------
                                 COD            SS            TN            TP         NH4-N
  Link                            kg            kg            kg            kg            kg
  ------------------------------------------------------------------------------------------
  WS02003066WSF200           296.275       554.618         9.904         0.987         5.490
  WS02006287WS02006284       275.417       515.864         9.568         0.967         5.339
  WS02006284WS02006280       275.893       516.634         9.615         0.972         5.368
  WS02006280WS02006229       275.871       516.596         9.612         0.972         5.367
  WS02006229WS02006228       288.476       539.389         9.799         0.980         5.447
  WS02006256WS02006235       170.965       326.357         3.305         0.239         1.616
  WS02006253WS02006251        45.011        88.538         0.962         0.070         0.471
  WS02006252WS02006251       750.903      1380.420        14.818         1.013         7.141
  WS02006251WS02006249       137.427       253.676         2.729         0.188         1.317
  WS02006249WS02006248       137.176       253.232         2.722         0.187         1.314
  WS02006248WS02006247       137.010       252.946         2.719         0.187         1.312
  WS02006247WS02006245       136.802       252.579         2.714         0.187         1.310
  WS02006245WS02006243       136.528       252.096         2.708         0.186         1.307
  WS02006243WS02006242       136.251       251.614         2.702         0.186         1.304
  WS02006242WS02006240       135.830       250.873         2.693         0.185         1.300
  WS02006240WS02006239       135.583       250.438         2.688         0.185         1.297
  WS02006239WS02006238       135.288       249.915         2.682         0.184         1.294
  WS02006238WS02006235       135.230       249.815         2.680         0.184         1.293
  WS02006235WS02006234        29.212        55.365         0.599         0.044         0.295
  WS02006234WS02006232        29.932        56.826         0.616         0.046         0.303
  WS02006232WS02006231        30.919        58.808         0.638         0.048         0.314
  WS02006231WS02006230        31.513        60.001         0.651         0.049         0.321
  WS02006230WS02006229        33.724        64.412         0.702         0.053         0.347
  WS02006228WS02006109       287.851       538.361         9.748         0.974         5.415
  WS02006116WS02004401       302.649       564.907        10.434         1.052         5.818
  WS02006115WS02006116       303.203       565.810        10.484         1.058         5.849
  WS02006113WS02006111       295.039       549.853        10.451         1.062         5.855
  WS02006112WS02006115       303.714       566.617        10.529         1.063         5.877
  WS02006111WS02006112       294.888       549.621        10.434         1.060         5.845
  WS02006110WS02006113       295.178       550.064        10.464         1.064         5.864
  WS02006109WS02006110       295.869       551.158        10.528         1.072         5.903
  WS02004411WS02004412       297.824       556.995        10.051         1.005         5.581
  WS02004401WS02004402       301.940       563.768        10.375         1.044         5.781
  WS02004413WS02003067       296.754       555.435         9.938         0.991         5.510
  WS02004412WS02004413       297.225       556.027        10.000         0.999         5.550
  WS02004410WS02004411       298.245       557.687        10.086         1.009         5.603
  WS02004409WS02004410       298.555       558.174        10.115         1.013         5.621
  WS02004407WS02004409       298.856       558.689        10.138         1.016         5.635
  WS02004406WS02004407       299.018       558.992        10.146         1.017         5.640
  WS02004405WS02004406       300.521       561.381        10.282         1.034         5.725
  WS02004404WS02004405       301.237       562.616        10.330         1.039         5.754
  WS02004403WS02004404       300.568       561.550        10.260         1.030         5.710
  WS02004402WS02004403       301.210       562.575        10.314         1.037         5.743
  WS02004139WS02001211        44.297        74.364         3.450         0.421         2.126
  WS02004138WS02004139      1297.712      2148.554       105.513        12.879        65.037
  WS02003067WS02003066       296.280       554.604         9.908         0.987         5.492
  WS02001213WS02003059        40.127        69.488         2.684         0.320         1.634
  WS02001212WS02001213        42.800        72.815         3.135         0.379         1.923
  WS02001211WS02001212        44.057        74.376         3.346         0.407         2.058
  WS02003072WS02003073       410.581       733.937        21.693         2.471        12.889
  WS02003069WS02003072       411.871       735.836        21.842         2.490        12.982
  WS02003060WS02003069       410.198       733.181        21.677         2.469        12.879
  WS02003059WS02003060        43.034        75.988         2.586         0.303         1.558
  HS02004901HS02004770        10.665        20.430         0.202         0.015         0.095
  HS02004876HS02004881        38.225        75.007         0.858         0.064         0.424
  HS02004870HS02004876        28.881        56.521         0.691         0.053         0.345
  HS02004842HS02004848         5.509        10.440         0.115         0.008         0.053
  HS02004837HS02004842        10.114        17.748         0.584         0.067         0.347
  HS02004830HS02004837        66.952       115.335         4.653         0.558         2.844
  HS02004824HS02004830        67.726       116.576         4.726         0.567         2.890
  HS02004817HS02004824        89.792       160.469         5.185         0.597         3.114
  HS02004770HS02004777        40.737        79.004         0.843         0.057         0.388
  HS02004799HS02004480       136.148       256.556         3.783         0.345         1.987
  HS02004792HS02004799       123.601       231.173         3.597         0.336         1.906
  HS02004788HS02004792        70.685       132.246         2.448         0.241         1.342
  HS02004785HS02004788        42.224        81.383         0.997         0.076         0.485
  HS02004777HS02004785        41.544        80.283         0.935         0.069         0.447
  HS02004480HS02004478       171.391       325.791         4.357         0.385         2.255
  HS02004479HS02004480        38.886        75.041         0.902         0.081         0.472
  HS02004862HS02004870        21.646        41.695         0.548         0.044         0.277
  HS02004848HS02004852         8.385        16.063         0.172         0.012         0.079
  HS02004856HS02004862        14.498        28.434         0.290         0.019         0.136
  HS02004852HS02004856         8.390        16.070         0.173         0.012         0.080
  HS02004802HS02004478       104.687       191.137         5.266         0.588         3.118
  HS02004478WS02006287       275.605       516.172         9.585         0.969         5.350
  HS02004817HS02004807        88.541       158.464         5.065         0.582         3.039
  HS02004807HS02004802       104.963       191.573         5.300         0.593         3.140
  YS02001759YS02001757       433.053       800.496         8.612         0.592         4.201
  YS02001762YS02001759       187.066       346.764         4.004         0.277         1.980
  YS02001765YS02001762       186.709       346.152         4.016         0.278         1.989
  YS02001770YS02001767       184.401       342.483         3.706         0.238         1.791
  YS02001774YS02001770        76.117       145.379         1.486         0.096         0.716
  YS02001779YS02001774        74.607       142.373         1.544         0.107         0.760
  YS02001649YS02001757       350.653       621.992         6.995         0.498         3.333
  YS02001767YS02001765       186.849       346.378         4.028         0.280         1.996
  YS02006561YS02001783       976.774      1800.309        20.608         1.549        10.284
  YS02001783YS02001784       976.687      1800.195        20.604         1.548        10.282
  YS02001784YS02001785       984.207      1812.271        21.332         1.639        10.737
  YS02001788YS02001790       984.870      1813.387        21.407         1.649        10.784
  YS02001790YS02001791       985.822      1814.944        21.506         1.662        10.847
  YS02001791YS02001793       986.015      1815.360        21.506         1.661        10.846
  YS02001910YS02001907       325.364       590.328         8.162         0.640         4.224
  YS02001786YS02001788       984.430      1812.658        21.361         1.643        10.755
  YS02001915YS02001910       325.381       590.336         8.116         0.633         4.193
  YS02001918YS02001915       154.222       266.994         4.567         0.429         2.495
  YS02001923YS02001920       133.968       234.690         2.575         0.179         1.249
  YS02001926YS02001923       133.676       234.244         2.538         0.174         1.225
  YS02001929YS02001926       133.428       233.832         2.506         0.170         1.204
  YS02001920YS02001918       154.266       267.155         4.536         0.424         2.474
  YS02001629YS02163301       106.309       189.127         2.222         0.144         1.036
  YS02001619YS02001622       144.531       259.867         2.990         0.194         1.395
  YS02001622YS02001625       143.440       258.149         2.963         0.192         1.383
  YS02001625YS02001629       107.377       190.900         2.245         0.145         1.047
  YS02163301YS02001633       106.085       188.756         2.216         0.144         1.034
  YS02163601YS02164001       361.126       645.453         7.099         0.501         3.396
  YS02164001YS02001641       360.707       644.747         7.081         0.500         3.385
  YS02001641YS02001644       360.988       645.153         7.081         0.499         3.385
  YS02001647YS02001649       311.383       551.053         6.143         0.435         2.927
  YS02006553YS02006556       699.925      1285.529        15.046         1.157         7.581
  YS02006556YS02006558       699.950      1285.572        15.017         1.153         7.562
  YSB6556YSB1171              22.385        43.413         0.460         0.039         0.234
  YS02001907YS02006553       700.007      1285.689        15.056         1.158         7.588
  YS02006558YS02006561       976.780      1800.301        20.608         1.549        10.284
  YS02001633YS02163601       361.744       646.392         7.077         0.497         3.378
  YS02001644YS02001647       317.641       562.713         6.252         0.443         2.980
  YS02001745YS02001748       201.089       371.686         4.049         0.248         1.943
  YS02001748YS02001751       200.917       371.290         4.105         0.257         1.981
  YS02001751YS02001754       200.016       369.812         4.089         0.256         1.975
  YS02001754YS02001757       200.877       371.124         4.259         0.279         2.085
  YS02001882YS02001884         2.646         4.578         0.054         0.004         0.027
  YS02001884YS02001887         6.786        12.091         0.133         0.010         0.066
  YS02001890YS02001895       387.833       720.222         7.155         0.538         3.492
  YS02001895YS02001898       387.701       720.065         7.149         0.537         3.489
  YS02001898YS02001901       387.510       719.742         7.144         0.537         3.487
  YS02001901YS02001904       387.378       719.565         7.151         0.538         3.491
  YS02001904YS02001907       387.653       720.014         7.204         0.545         3.526
  YS02001887YS02001890       388.570       721.296         7.209         0.544         3.525
  YS02001652YS02001649       157.174       288.122         3.204         0.230         1.502
  YS02001655YS02001652       157.998       289.404         3.226         0.232         1.512
  YS02001658YS02001655       157.867       289.200         3.146         0.221         1.459
  YS02001661YS02001658       158.764       290.710         3.166         0.222         1.468
  YS02001664YS02001661       175.459       318.875         3.529         0.247         1.635
  YSB1154YSB6556              21.960        42.738         0.410         0.032         0.202
  YSB1174YSB1171              14.964        29.158         0.304         0.025         0.152
  YSB1171HS02004479           38.854        74.993         0.905         0.081         0.474
  HS02004881HS02006253        43.026        84.624         0.948         0.070         0.467
  YS02001793JiankangQianchi       986.291      1815.995        21.509         1.662        10.847
  YS02001757CaochengTiaoxuchi       927.598      1689.670        18.558         1.271         8.957
  WSF200WS02003060           296.102       554.292         9.897         0.986         5.486
  1                          422.557       752.670        22.917         2.625        13.656
  CC-Pump-1                  375.485       690.265         7.409         0.507         3.571
  CC-Pump-2                  375.485       690.265         7.409         0.507         3.571
  JK-Pump-1                  180.412       344.315         3.489         0.252         1.706
  JK-Pump-2                  410.719       783.858         7.942         0.574         3.884
  XR-Pump-1                  324.747       537.661        26.405         3.223        16.276
  XR-Pump-2                  324.747       537.661        26.405         3.223        16.276
  XR-Pump-3                  324.747       537.661        26.405         3.223        16.276
  XR-Pump-4                  324.747       537.661        26.405         3.223        16.276
  3                          658.702      1215.578        13.098         0.902         6.326
  5                          292.159       550.898         5.728         0.407         2.787
  6                         1343.909      2225.962       109.144        13.322        67.277
  

  Analysis begun on:  Thu Jul  8 15:34:36 2021
  Analysis ended on:  Thu Jul  8 15:34:38 2021
  Total elapsed time: 00:00:02