
  EPA STORM WATER MANAGEMENT MODEL - VERSION 5.1 (Build 5.3.0.dev0)
  --------------------------------------------------------------

  WARNING 04: minimum elevation drop used for Conduit WS02004404WS02004405
  WARNING 03: negative offset ignored for Link YS02001904YS02001907
  
  *********************************************************
  NOTE: The summary statistics displayed in this report are
  based on results found at every computational time step,  
  not just on results from each reporting time step.
  *********************************************************
  
  ****************
  Analysis Options
  ****************
  Flow Units ............... LPS
  Process Models:
    Rainfall/Runoff ........ YES
    RDII ................... NO
    Snowmelt ............... NO
    Groundwater ............ NO
    Flow Routing ........... YES
    Ponding Allowed ........ NO
    Water Quality .......... YES
  Infiltration Method ...... HORTON
  Flow Routing Method ...... DYNWAVE
  Surcharge Method ......... EXTRAN
  Starting Date ............ 08/28/2015 08:00:00
  Ending Date .............. 08/28/2015 16:00:00
  Antecedent Dry Days ...... 8.0
  Report Time Step ......... 00:01:00
  Wet Time Step ............ 00:01:00
  Dry Time Step ............ 00:01:00
  Routing Time Step ........ 5.00 sec
  Variable Time Step ....... YES
  Maximum Trials ........... 8
  Number of Threads ........ 4
  Head Tolerance ........... 0.001500 m
  
  
  **************************        Volume         Depth
  Runoff Quantity Continuity     hectare-m            mm
  **************************     ---------       -------
  Total Precipitation ......         7.225        15.819
  Evaporation Loss .........         0.000         0.000
  Infiltration Loss ........         1.162         2.543
  Surface Runoff ...........         5.098        11.162
  Final Storage ............         0.967         2.116
  Continuity Error (%) .....        -0.017
  
  
  **************************           COD            SS            TN            TP         NH4-N
  Runoff Quality Continuity             kg            kg            kg            kg            kg
  **************************    ----------    ----------    ----------    ----------    ----------
  Initial Buildup ..........     41378.656     70582.865      1804.177       168.684      1032.807
  Surface Buildup ..........        29.452        60.412         2.494         0.225         1.432
  Wet Deposition ...........         0.000         0.000         0.000         0.000         0.000
  Sweeping Removal .........         0.000         0.000         0.000         0.000         0.000
  Infiltration Loss ........       121.275       234.054         2.315         0.164         1.107
  BMP Removal ..............         0.000         0.000         0.000         0.000         0.000
  Surface Runoff ...........      5076.686      9698.729        97.758         6.748        46.590
  Remaining Buildup ........     36208.131     60706.557      1706.558       161.994       986.524
  Continuity Error (%) .....         0.005         0.006         0.002         0.002         0.002
  
  
  **************************        Volume        Volume
  Flow Routing Continuity        hectare-m      10^6 ltr
  **************************     ---------     ---------
  Dry Weather Inflow .......         0.630         6.296
  Wet Weather Inflow .......         5.097        50.970
  Groundwater Inflow .......         0.000         0.000
  RDII Inflow ..............         0.000         0.000
  External Inflow ..........         0.105         1.045
  External Outflow .........         3.075        30.752
  Flooding Loss ............         2.744        27.438
  Evaporation Loss .........         0.000         0.000
  Exfiltration Loss ........         0.000         0.000
  Initial Stored Volume ....         0.076         0.761
  Final Stored Volume ......         0.506         5.058
  Continuity Error (%) .....        -7.070
  
  
  **************************           COD            SS            TN            TP         NH4-N
  Quality Routing Continuity            kg            kg            kg            kg            kg
  **************************    ----------    ----------    ----------    ----------    ----------
  Dry Weather Inflow .......      1573.993      2518.389       151.103        18.888        94.440
  Wet Weather Inflow .......      5076.419      9698.419        97.751         6.747        46.586
  Groundwater Inflow .......         0.000         0.000         0.000         0.000         0.000
  RDII Inflow ..............         0.000         0.000         0.000         0.000         0.000
  External Inflow ..........       187.321       299.713        17.983         2.248        11.239
  External Outflow .........      3001.319      5417.693       145.276        16.121        85.349
  Flooding Loss ............      2832.799      5397.309        73.074         6.468        38.517
  Exfiltration Loss ........         0.000         0.000         0.000         0.000         0.000
  Mass Reacted .............         0.000         0.000         0.000         0.000         0.000
  Initial Stored Mass ......         0.000         0.000         0.000         0.000         0.000
  Final Stored Mass ........       425.630       727.940        20.318         2.204        11.856
  Continuity Error (%) .....         8.453         7.778        10.556        11.083        10.865
  
  
  *************************
  Highest Continuity Errors
  *************************
  Node JK-storage (-31.40%)
  Node HS02004842 (11.61%)
  Node YS02001884 (8.60%)
  Node WS02003059 (5.11%)
  Node HS02004817 (2.21%)
  
  
  ***************************
  Time-Step Critical Elements
  ***************************
  Link YS02001793JiankangQianchi (54.39%)
  Link WS02006280WS02006229 (22.43%)
  Link YS02006556YS02006558 (5.36%)
  Link WS02006256WS02006235 (2.31%)
  Link WS02006252WS02006251 (2.29%)
  
  
  ********************************
  Highest Flow Instability Indexes
  ********************************
  Link YS02163601YS02164001 (39)
  Link WS02006252WS02006251 (39)
  Link YS02001629YS02163301 (37)
  Link YS02163301YS02001633 (37)
  Link YS02164001YS02001641 (36)
  
  
  *************************
  Routing Time Step Summary
  *************************
  Minimum Time Step           :     0.05 sec
  Average Time Step           :     2.05 sec
  Maximum Time Step           :     5.00 sec
  Percent in Steady State     :    -0.00
  Average Iterations per Step :     4.28
  Percent Not Converging      :    20.65
  
  
  ***************************
  Subcatchment Runoff Summary
  ***************************
  
  ------------------------------------------------------------------------------------------------------------------------------
                            Total      Total      Total      Total     Imperv       Perv      Total       Total     Peak  Runoff
                           Precip      Runon       Evap      Infil     Runoff     Runoff     Runoff      Runoff   Runoff   Coeff
  Subcatchment                 mm         mm         mm         mm         mm         mm         mm    10^6 ltr      LPS
  ------------------------------------------------------------------------------------------------------------------------------
  sub0                      15.82       0.00       0.00       0.65      14.67       0.46      15.12        0.01     3.31   0.956
  sub1                      15.82       0.00       0.00       1.14      13.99       0.60      14.59        0.10    23.64   0.923
  sub2                      15.82       0.00       0.00       4.73       9.88       1.12      11.00        0.10    23.47   0.695
  sub3                      15.82       0.00       0.00       4.93       9.84       0.92      10.77        0.24    52.70   0.681
  sub4                      15.82       0.00       0.00       1.26      13.83       0.48      14.31        0.30    62.69   0.905
  sub5                      15.82       0.00       0.00       0.69      14.62       0.41      15.03        0.17    41.30   0.950
  sub7                      15.82       0.00       0.00       0.88      14.33       0.55      14.88        0.05    12.89   0.941
  sub8                      15.82       0.00       0.00       0.89      14.32       0.54      14.86        0.09    23.92   0.939
  sub9                      15.82       0.00       0.00       0.89      14.32       0.53      14.85        0.07    17.92   0.939
  sub10                     15.82       0.00       0.00       0.80      14.47       0.47      14.94        0.16    40.43   0.944
  sub11                     15.82       0.00       0.00       0.78      14.48       0.49      14.97        0.17    44.03   0.946
  sub12                     15.82       0.00       0.00       1.27      13.72       0.79      14.50        0.13    33.91   0.917
  sub14                     15.82       0.00       0.00       0.89      14.32       0.53      14.85        0.14    35.33   0.939
  sub15                     15.82       0.00       0.00       3.49      11.01       1.25      12.26        0.21    51.73   0.775
  sub16                     15.82       0.00       0.00       3.65      10.56       1.57      12.13        0.13    33.21   0.767
  sub17                     15.82       0.00       0.00       3.56      10.71       1.51      12.22        0.10    27.18   0.773
  sub22                     15.82       0.00       0.00       5.21       8.98       1.59      10.56        0.67   164.54   0.668
  sub23                     15.82       0.00       0.00       4.32       9.92       1.54      11.46        0.55   137.40   0.724
  sub60                     15.82       0.00       0.00       1.69      11.96       0.21      12.16        3.69   481.95   0.769
  sub61                     15.82       0.00       0.00       2.40      11.95       0.29      12.25        3.78   559.39   0.774
  sub62                     15.82       0.00       0.00       1.05      13.06       0.22      13.27        4.08   581.34   0.839
  sub63                     15.82       0.00       0.00       4.25      10.41       0.34      10.74        3.25   506.09   0.679
  sub64                     15.82       0.00       0.00       2.16      11.49       0.21      11.70        3.56   460.92   0.740
  sub65                     15.82       0.00       0.00       1.86      11.70       0.20      11.90        3.66   469.51   0.752
  sub66                     15.82       0.00       0.00       4.36       9.80       0.23      10.03        3.08   414.81   0.634
  sub67                     15.82       0.00       0.00       1.00      13.60       0.26      13.87        4.28   686.26   0.877
  sub68                     15.82       0.00       0.00       1.92      12.53       0.30      12.83        3.94   603.56   0.811
  sub69                     15.82       0.00       0.00       1.97      12.83       0.40      13.24        3.09   540.53   0.837
  sub70                     15.82      13.51       0.00       8.28      17.79       1.69      19.48        4.46   603.13   0.664
  sub71                     15.82       0.00       0.00       1.07      12.79       0.20      12.99        3.07   417.95   0.821
  sub72                     15.82       0.00       0.00       1.00      10.67       0.11      10.78        2.20   224.99   0.681
  1                         15.82      18.97       0.00       1.40      20.70       6.40      27.10        6.37   614.57   0.779
  2                         15.82       0.00       0.00       3.09       3.81       2.78       6.59        2.63   335.76   0.416
  
  
  ****************************
  Subcatchment Washoff Summary
  ****************************
  
  ------------------------------------------------------------------------------------------
                                 COD            SS            TN            TP         NH4-N
  Subcatchment                    kg            kg            kg            kg            kg
  ------------------------------------------------------------------------------------------
  sub0                         3.342         6.539         0.058         0.005         0.028
  sub1                        14.445        29.169         0.272         0.019         0.131
  sub2                         9.333        18.450         0.194         0.013         0.090
  sub3                        22.930        44.994         0.469         0.032         0.217
  sub4                        33.459        68.527         0.660         0.041         0.317
  sub5                        32.971        65.544         0.595         0.046         0.289
  sub7                         7.277        14.873         0.138         0.009         0.067
  sub8                        10.857        22.729         0.216         0.013         0.104
  sub9                         9.333        19.260         0.181         0.012         0.087
  sub10                       27.062        54.498         0.501         0.036         0.243
  sub11                       26.178        53.276         0.493         0.034         0.239
  sub12                       22.495        44.902         0.412         0.031         0.199
  sub14                       20.012        40.904         0.381         0.026         0.184
  sub15                       27.054        53.366         0.520         0.038         0.245
  sub16                       17.547        34.544         0.334         0.025         0.158
  sub17                       16.118        31.445         0.299         0.024         0.142
  sub22                       86.358       167.545         1.636         0.124         0.769
  sub23                       49.405        99.074         1.037         0.069         0.479
  sub60                      324.640       621.676         6.408         0.400         3.077
  sub61                      403.811       770.091         7.508         0.521         3.622
  sub62                      414.691       803.518         8.053         0.518         3.874
  sub63                      300.333       564.683         5.954         0.423         2.777
  sub64                      412.475       762.497         7.580         0.557         3.629
  sub65                      421.470       782.145         7.792         0.563         3.736
  sub66                      236.925       441.828         4.798         0.317         2.250
  sub67                      616.781      1183.082        11.126         0.827         5.390
  sub68                      441.387       849.607         8.413         0.576         4.031
  sub69                      395.759       769.131         7.420         0.528         3.559
  sub70                      689.482      1342.738        13.769         0.971         6.492
  sub71                      272.842       533.508         5.550         0.327         2.660
  sub72                      224.846       409.126         4.183         0.289         2.015
  1                          511.608      1001.637        10.376         0.732         4.846
  2                           58.701       105.692         1.622         0.098         0.695
  ------------------------------------------------------------------------------------------
  System                    6161.927     11810.599       118.947         8.246        56.641
  
  
  ******************
  Node Depth Summary
  ******************
  
  ---------------------------------------------------------------------------------
                                 Average  Maximum  Maximum  Time of Max    Reported
                                   Depth    Depth      HGL   Occurrence   Max Depth
  Node                 Type       Meters   Meters   Meters  days hr:min      Meters
  ---------------------------------------------------------------------------------
  WS02001211           JUNCTION     0.32     0.36     5.20     0  02:43        0.36
  WS02001212           JUNCTION     0.09     0.16     5.22     0  02:43        0.16
  WS02001213           JUNCTION     0.35     0.51     5.28     0  02:42        0.51
  WS02003069           JUNCTION     0.21     0.39     4.97     0  02:42        0.39
  WS02003072           JUNCTION     0.27     0.46     4.83     0  02:43        0.46
  WS02003073           JUNCTION     0.15     0.27     4.34     0  02:44        0.27
  WS02003060           JUNCTION     0.19     0.35     5.28     0  02:42        0.35
  WS02003066           JUNCTION     0.16     0.29     5.85     0  02:41        0.29
  WS02003059           JUNCTION     0.43     0.59     5.28     0  02:42        0.59
  WS02003067           JUNCTION     0.42     0.69     6.01     0  02:41        0.69
  WS02004401           JUNCTION     0.49     0.83     6.83     0  02:37        0.83
  WS02004402           JUNCTION     0.53     0.86     6.82     0  02:37        0.86
  WS02004403           JUNCTION     0.55     0.88     6.81     0  02:37        0.88
  WS02004404           JUNCTION     0.63     0.95     6.80     0  02:37        0.95
  WS02004406           JUNCTION     0.64     0.94     6.77     0  02:38        0.94
  WS02004409           JUNCTION     0.30     0.65     6.42     0  02:39        0.65
  WS02004410           JUNCTION     0.33     0.67     6.39     0  02:40        0.67
  WS02004411           JUNCTION     0.35     0.68     6.36     0  02:40        0.68
  WS02004412           JUNCTION     0.37     0.68     6.32     0  02:40        0.68
  WS02004413           JUNCTION     0.52     0.85     6.32     0  02:41        0.85
  WS02004405           JUNCTION     0.62     0.94     6.79     0  02:37        0.94
  WS02006109           JUNCTION     0.55     0.92     7.54     0  02:34        0.92
  WS02006110           JUNCTION     0.57     0.89     7.47     0  02:34        0.89
  WS02006111           JUNCTION     0.14     0.27     6.98     0  02:34        0.27
  WS02006112           JUNCTION     0.64     1.04     6.92     0  02:37        1.03
  WS02006113           JUNCTION     0.21     0.43     7.33     0  02:34        0.43
  WS02006115           JUNCTION     0.38     0.73     6.87     0  02:37        0.73
  WS02006116           JUNCTION     0.46     0.81     6.85     0  02:37        0.81
  WS02006230           JUNCTION     0.45     0.87     7.62     0  02:34        0.87
  WS02006231           JUNCTION     0.22     0.47     7.59     0  02:35        0.47
  WS02006232           JUNCTION     0.31     0.54     7.58     0  02:35        0.54
  WS02006234           JUNCTION     0.19     0.38     7.54     0  02:35        0.38
  WS02006235           JUNCTION     0.20     0.30     7.46     0  02:36        0.30
  WS02006238           JUNCTION     0.23     0.33     7.47     0  02:36        0.33
  WS02006240           JUNCTION     0.19     0.26     7.55     0  02:37        0.26
  WS02006242           JUNCTION     0.26     0.34     7.61     0  02:37        0.34
  WS02006243           JUNCTION     0.17     0.22     7.64     0  02:36        0.22
  WS02006245           JUNCTION     0.19     0.25     7.73     0  02:35        0.25
  WS02006247           JUNCTION     0.22     0.28     7.78     0  02:34        0.28
  WS02006248           JUNCTION     0.17     0.23     7.82     0  02:34        0.23
  WS02006249           JUNCTION     0.22     0.28     7.87     0  02:33        0.28
  WS02006239           JUNCTION     0.21     0.29     7.50     0  02:36        0.29
  WS02006251           JUNCTION     0.20     0.26     7.93     0  02:33        0.26
  WS02006252           JUNCTION     0.52     0.59     8.84     0  02:22        0.59
  WS02006253           JUNCTION     0.24     0.36     8.00     0  02:32        0.36
  WS02006256           JUNCTION     2.12     2.35     9.28     0  00:00        2.35
  WS02004138           JUNCTION     0.19     0.20     7.45     0  00:00        0.19
  WS02004139           JUNCTION     0.24     0.27     5.18     0  02:44        0.27
  WS02004407           JUNCTION     0.14     0.29     6.60     0  02:38        0.29
  WS02006228           JUNCTION     0.53     0.95     7.60     0  02:34        0.95
  WS02006229           JUNCTION     0.50     0.94     7.63     0  02:34        0.94
  WS02006280           JUNCTION     0.09     0.25     8.52     0  02:34        0.25
  WS02006284           JUNCTION     0.40     0.64     9.04     0  02:34        0.64
  WS02006287           JUNCTION     0.13     0.38     9.34     0  02:33        0.38
  WSF200               JUNCTION     0.13     0.28     5.51     0  02:41        0.28
  HS02004901           JUNCTION     0.15     0.36    10.19     0  02:32        0.36
  HS02004881           JUNCTION     0.01     0.05     9.08     0  02:33        0.05
  HS02004876           JUNCTION     0.06     0.16     9.19     0  02:33        0.16
  HS02004870           JUNCTION     0.02     0.09     9.38     0  02:33        0.09
  HS02004862           JUNCTION     0.03     0.11     9.49     0  02:33        0.11
  HS02004856           JUNCTION     0.09     0.15     9.57     0  02:33        0.15
  HS02004852           JUNCTION     0.02     0.07     9.58     0  02:33        0.07
  HS02004848           JUNCTION     0.02     0.07     9.67     0  02:33        0.07
  HS02004842           JUNCTION     0.34     0.40     9.67     0  02:33        0.40
  HS02004837           JUNCTION     0.04     0.09     9.67     0  02:33        0.09
  HS02004830           JUNCTION     0.05     0.10     9.57     0  02:34        0.10
  HS02004824           JUNCTION     0.03     0.12     9.53     0  02:34        0.12
  HS02004817           JUNCTION     0.46     0.69     9.54     0  02:34        0.69
  HS02004807           JUNCTION     0.15     0.36     9.53     0  02:34        0.36
  HS02004802           JUNCTION     0.19     0.39     9.52     0  02:34        0.39
  HS02004799           JUNCTION     0.16     0.45     9.66     0  02:32        0.45
  HS02004792           JUNCTION     0.06     0.21     9.73     0  02:32        0.21
  HS02004788           JUNCTION     0.04     0.15    10.05     0  02:33        0.15
  HS02004785           JUNCTION     0.07     0.24    10.14     0  02:32        0.24
  HS02004777           JUNCTION     0.18     0.38    10.18     0  02:32        0.38
  HS02004770           JUNCTION     0.15     0.36    10.19     0  02:32        0.36
  HS02004480           JUNCTION     0.12     0.37     9.61     0  02:32        0.37
  HS02004479           JUNCTION     0.15     0.41     9.61     0  02:32        0.41
  HS02004478           JUNCTION     0.09     0.27     9.50     0  02:33        0.27
  YS02001745           JUNCTION     0.65     0.94     8.46     0  03:01        0.94
  YS02001748           JUNCTION     1.02     1.38     8.46     0  02:59        1.37
  YS02001751           JUNCTION     1.19     1.57     8.45     0  02:59        1.56
  YS02001754           JUNCTION     1.43     1.83     8.44     0  02:59        1.82
  YS02001762           JUNCTION     1.63     2.03     8.43     0  02:38        2.02
  YS02001765           JUNCTION     1.58     1.98     8.43     0  02:59        1.97
  YS02001767           JUNCTION     1.55     1.94     8.43     0  02:59        1.94
  YS02001770           JUNCTION     1.54     1.93     8.42     0  03:00        1.92
  YS02001774           JUNCTION     1.61     1.98     8.41     0  02:59        1.98
  YS02001779           JUNCTION     1.36     1.68     8.37     0  02:25        1.68
  YS02001882           JUNCTION     0.66     1.64     8.35     0  02:51        1.63
  YS02001884           JUNCTION     0.75     1.74     8.36     0  02:48        1.73
  YS02001759           JUNCTION     1.66     2.07     8.43     0  02:59        2.06
  YS02001887           JUNCTION     0.83     1.81     8.35     0  02:40        1.81
  YS02001890           JUNCTION     0.86     1.81     8.32     0  02:26        1.81
  YS02001898           JUNCTION     0.63     1.56     8.30     0  02:48        1.56
  YS02001901           JUNCTION     0.74     1.68     8.29     0  02:30        1.67
  YS02001904           JUNCTION     0.72     1.64     8.27     0  02:39        1.63
  YS02001907           JUNCTION     1.04     1.96     8.25     0  02:26        1.96
  YS02001910           JUNCTION     0.84     1.80     8.30     0  02:27        1.78
  YS02001915           JUNCTION     0.64     1.62     8.34     0  02:27        1.60
  YS02001918           JUNCTION     0.38     1.32     8.39     0  02:27        1.29
  YS02001619           JUNCTION     1.16     1.50     8.43     0  02:21        1.50
  YS02001629           JUNCTION     1.50     1.85     8.40     0  02:20        1.85
  YS02001641           JUNCTION     1.59     1.94     8.37     0  02:26        1.93
  YS02001644           JUNCTION     1.60     1.92     8.35     0  02:22        1.92
  YS02001652           JUNCTION     1.45     2.01     8.60     0  02:35        1.87
  YS02001655           JUNCTION     1.22     1.92     8.77     0  02:35        1.68
  YS02001920           JUNCTION     0.48     1.41     8.42     0  02:27        1.37
  YS02001923           JUNCTION     0.31     1.18     8.44     0  02:27        1.14
  YS02001926           JUNCTION     0.34     1.09     8.54     0  02:27        0.94
  YS02001929           JUNCTION     0.21     0.79     8.48     0  02:27        0.71
  YS02001658           JUNCTION     0.96     1.80     8.94     0  02:35        1.43
  YS02001661           JUNCTION     0.76     1.71     9.12     0  02:34        1.18
  YS02001664           JUNCTION     0.33     0.56     8.48     0  02:30        0.53
  YS02001622           JUNCTION     1.18     1.52     8.42     0  02:21        1.51
  YS02001633           JUNCTION     1.59     1.96     8.41     0  02:21        1.96
  YS02001649           JUNCTION     1.63     2.05     8.44     0  02:30        2.02
  YS02001757           JUNCTION     1.75     2.16     8.42     0  02:59        2.15
  YS02001895           JUNCTION     0.62     1.57     8.31     0  02:29        1.56
  YS02001625           JUNCTION     1.46     1.78     8.38     0  02:18        1.78
  YS02163301           JUNCTION     1.53     1.89     8.41     0  02:21        1.89
  YS02163601           JUNCTION     1.64     2.00     8.40     0  02:21        1.99
  YS02164001           JUNCTION     1.58     1.92     8.38     0  02:21        1.91
  YS02001647           JUNCTION     1.43     1.81     8.42     0  02:36        1.77
  YSB1154              JUNCTION     0.29     0.56     9.62     0  02:32        0.56
  YSB6556              JUNCTION     0.19     0.45     9.61     0  02:32        0.45
  YSB1174              JUNCTION     0.24     0.51     9.61     0  02:32        0.51
  YSB1171              JUNCTION     0.44     0.71     9.61     0  02:32        0.71
  YS02006553           JUNCTION     1.04     1.99     8.27     0  02:59        1.96
  YS02006561           JUNCTION     0.36     1.05     7.71     0  03:11        1.05
  YS02006556           JUNCTION     1.01     1.98     8.29     0  02:59        1.92
  YS02006558           JUNCTION     1.05     2.03     8.30     0  02:59        1.97
  YS02001783           JUNCTION     0.57     1.44     7.58     0  03:11        1.44
  YS02001784           JUNCTION     0.57     1.38     7.44     0  03:11        1.38
  YS02001786           JUNCTION     0.48     1.22     7.25     0  03:12        1.22
  YS02001788           JUNCTION     0.37     1.08     7.06     0  03:13        1.08
  YS02001790           JUNCTION     0.44     1.24     6.88     0  03:13        1.24
  YS02001791           JUNCTION     0.32     1.21     6.68     0  03:13        1.21
  YS02001793           JUNCTION     0.33     1.74     6.57     0  03:14        1.74
  WSC                  OUTFALL      0.15     0.27     0.94     0  02:44        0.27
  3                    OUTFALL      0.00     0.00     7.16     0  00:00        0.00
  4                    OUTFALL      0.00     0.00     7.67     0  00:00        0.00
  5                    OUTFALL      0.00     0.00     4.91     0  00:00        0.00
  JK-storage           STORAGE      1.12     5.74     6.54     0  03:14        5.74
  CC-storage           STORAGE      0.96     1.38     8.38     0  03:14        1.38
  XR-storage           STORAGE      5.75     7.72     5.72     0  02:45        7.72
  
  
  *******************
  Node Inflow Summary
  *******************
  
  -------------------------------------------------------------------------------------------------
                                  Maximum  Maximum                  Lateral       Total        Flow
                                  Lateral    Total  Time of Max      Inflow      Inflow     Balance
                                   Inflow   Inflow   Occurrence      Volume      Volume       Error
  Node                 Type           LPS      LPS  days hr:min    10^6 ltr    10^6 ltr     Percent
  -------------------------------------------------------------------------------------------------
  WS02001211           JUNCTION      7.35    79.16     0  02:43       0.212       0.463       2.132
  WS02001212           JUNCTION      0.00    71.90     0  02:42           0       0.346       0.680
  WS02001213           JUNCTION      0.00    72.12     0  02:41           0       0.349       2.779
  WS02003069           JUNCTION      0.32   457.79     0  02:42     0.00922        3.76       0.182
  WS02003072           JUNCTION      0.00   457.73     0  02:43           0        3.76       0.284
  WS02003073           JUNCTION      1.82   459.51     0  02:43      0.0524         3.8       0.256
  WS02003060           JUNCTION     16.53   529.86     0  02:41       0.476        4.03       0.163
  WS02003066           JUNCTION      0.00   513.33     0  02:41           0        3.45       0.057
  WS02003059           JUNCTION      0.00    73.16     0  02:39           0       0.366       5.386
  WS02003067           JUNCTION      0.00   513.31     0  02:41           0        3.46       0.146
  WS02004401           JUNCTION      0.00   516.83     0  02:37           0        3.59       0.341
  WS02004402           JUNCTION      0.00   516.31     0  02:37           0        3.57       0.341
  WS02004403           JUNCTION      0.00   516.36     0  02:37           0        3.56       0.327
  WS02004404           JUNCTION      0.16   516.15     0  02:37     0.00467        3.55       0.263
  WS02004406           JUNCTION      0.00   516.33     0  02:37           0        3.53       0.652
  WS02004409           JUNCTION      0.00   515.86     0  02:38           0        3.51       0.142
  WS02004410           JUNCTION      0.00   514.83     0  02:38           0         3.5       0.195
  WS02004411           JUNCTION      0.00   513.99     0  02:39           0        3.49       0.227
  WS02004412           JUNCTION      0.00   513.60     0  02:40           0        3.49       0.282
  WS02004413           JUNCTION      0.00   513.45     0  02:40           0        3.48       0.481
  WS02004405           JUNCTION      0.04   516.21     0  02:37      0.0011        3.55       0.406
  WS02006109           JUNCTION      1.23   492.07     0  02:34      0.0354        3.54       0.359
  WS02006110           JUNCTION      0.00   492.08     0  02:35           0        3.53       0.320
  WS02006111           JUNCTION      0.00   508.85     0  02:36           0        3.52       0.038
  WS02006112           JUNCTION     27.18   522.28     0  02:34       0.105        3.62       0.462
  WS02006113           JUNCTION      0.00   492.52     0  02:35           0        3.52       0.087
  WS02006115           JUNCTION      0.00   522.97     0  02:36           0         3.6       0.293
  WS02006116           JUNCTION      0.00   517.68     0  02:35           0        3.59       0.222
  WS02006230           JUNCTION     10.28   181.25     0  02:34       0.296        1.31       0.479
  WS02006231           JUNCTION      0.00   181.02     0  02:34           0        1.06       0.219
  WS02006232           JUNCTION      0.00   180.89     0  02:35           0        1.06       0.547
  WS02006234           JUNCTION      0.00   180.88     0  02:35           0        1.07       0.118
  WS02006235           JUNCTION      0.00   545.67     0  02:36           0        8.44       0.041
  WS02006238           JUNCTION      0.00    98.06     0  02:38           0        1.65       0.160
  WS02006240           JUNCTION      0.00    97.96     0  02:36           0        1.65       0.235
  WS02006242           JUNCTION      0.00    98.03     0  02:35           0        1.65       0.353
  WS02006243           JUNCTION      0.00    98.08     0  02:35           0        1.65       0.139
  WS02006245           JUNCTION      0.00    98.10     0  02:34           0        1.66       0.251
  WS02006247           JUNCTION      0.00    98.13     0  02:34           0        1.66       0.207
  WS02006248           JUNCTION      0.00    98.15     0  02:33           0        1.66       0.086
  WS02006249           JUNCTION      0.00    98.20     0  02:33           0        1.67       0.320
  WS02006239           JUNCTION      0.00    97.97     0  02:37           0        1.65       0.207
  WS02006251           JUNCTION      0.08   540.15     0  02:33     0.00222        9.62       0.034
  WS02006252           JUNCTION      0.00   400.00     0  01:45           0        9.04       0.006
  WS02006253           JUNCTION      3.31   139.43     0  02:33      0.0122       0.575       0.464
  WS02006256           JUNCTION      0.00   983.00     0  00:00           0        15.1      -0.008
  WS02004138           JUNCTION      0.00   380.00     0  00:00           0        10.9       0.058
  WS02004139           JUNCTION      0.32   459.47     0  02:44     0.00924        11.3       0.078
  WS02004407           JUNCTION      0.00   516.02     0  02:38           0        3.51       0.068
  WS02006228           JUNCTION      0.00   490.84     0  02:34           0        3.52       0.233
  WS02006229           JUNCTION      0.00   661.76     0  02:34           0        3.86       0.238
  WS02006280           JUNCTION      0.00   661.76     0  02:34           0        2.93       0.003
  WS02006284           JUNCTION      0.10   661.69     0  02:34     0.00275        2.93       0.031
  WS02006287           JUNCTION      0.00   661.54     0  02:34           0        2.93       0.025
  WSF200               JUNCTION      0.00   513.32     0  02:41           0        3.45       0.033
  HS02004901           JUNCTION     33.21    33.21     0  02:30       0.127       0.127       1.404
  HS02004881           JUNCTION     12.89   136.40     0  02:33      0.0501       0.563       0.011
  HS02004876           JUNCTION     23.64   123.95     0  02:33       0.097       0.513       0.105
  HS02004870           JUNCTION     23.92   100.56     0  02:33      0.0949       0.416       0.028
  HS02004862           JUNCTION     23.67    77.30     0  02:33       0.108       0.322       0.054
  HS02004856           JUNCTION     17.92    53.69     0  02:33      0.0714       0.215       0.678
  HS02004852           JUNCTION      0.00    36.22     0  02:33           0       0.143       0.039
  HS02004848           JUNCTION     52.70    52.70     0  02:35       0.242       0.242       0.022
  HS02004842           JUNCTION      0.00    17.48     0  02:44           0       0.112      13.137
  HS02004837           JUNCTION     46.78    62.52     0  02:33       0.348       0.447       0.184
  HS02004830           JUNCTION      0.15    62.64     0  02:33     0.00432       0.437       0.283
  HS02004824           JUNCTION     62.74   125.28     0  02:35         0.3       0.736       0.075
  HS02004817           JUNCTION      0.60   126.41     0  02:36      0.0173       0.752       2.265
  HS02004807           JUNCTION     44.03   168.11     0  02:35       0.174        0.91       0.482
  HS02004802           JUNCTION      0.00   168.62     0  02:35           0       0.908       0.435
  HS02004799           JUNCTION     35.33   421.62     0  02:32       0.141        1.74       0.157
  HS02004792           JUNCTION    164.82   386.81     0  02:32       0.675         1.6       0.027
  HS02004788           JUNCTION     53.40   222.80     0  02:32       0.259       0.928       0.043
  HS02004785           JUNCTION      0.15   169.63     0  02:32     0.00432        0.67       0.074
  HS02004777           JUNCTION      0.03   169.68     0  02:31    0.000864       0.671       0.780
  HS02004770           JUNCTION    137.40   170.17     0  02:31       0.547       0.672       0.464
  HS02004480           JUNCTION      0.00   494.76     0  02:32           0        2.04       0.054
  HS02004479           JUNCTION      0.00    73.31     0  02:32           0       0.305       0.241
  HS02004478           JUNCTION      0.00   661.51     0  02:33           0        2.93       0.010
  YS02001745           JUNCTION    481.95   481.95     0  03:01        3.69        3.69       0.195
  YS02001748           JUNCTION      0.04   483.12     0  03:00      0.0013        3.68       0.554
  YS02001751           JUNCTION      0.01   483.32     0  03:00    0.000317        3.66       0.634
  YS02001754           JUNCTION      0.26   483.59     0  03:00     0.00749        3.65       0.670
  YS02001762           JUNCTION      0.00   432.04     0  02:28           0        2.18       0.952
  YS02001765           JUNCTION      0.00   432.11     0  02:28           0        2.19       1.106
  YS02001767           JUNCTION      0.54   431.99     0  02:28      0.0154        2.21       1.633
  YS02001770           JUNCTION    581.50   674.40     0  03:01        4.08        4.35       0.704
  YS02001774           JUNCTION      0.00   674.69     0  03:01           0         2.4       1.045
  YS02001779           JUNCTION      0.01   674.82     0  03:01    0.000144        2.37       0.626
  YS02001882           JUNCTION      0.00    22.00     0  02:21           0      0.0289       6.405
  YS02001884           JUNCTION      0.00    27.20     0  02:20           0      0.0667       9.410
  YS02001759           JUNCTION    559.43   868.68     0  02:29        3.78        5.66       0.396
  YS02001887           JUNCTION    686.71   687.91     0  02:47        4.29        4.32       0.187
  YS02001890           JUNCTION      0.00   687.66     0  02:48           0        4.28       0.200
  YS02001898           JUNCTION      0.00   528.57     0  02:26           0        3.94       0.073
  YS02001901           JUNCTION      0.00   526.59     0  02:26           0        3.94       0.155
  YS02001904           JUNCTION      0.00   525.65     0  02:26           0        3.93       0.130
  YS02001907           JUNCTION      0.00  1161.76     0  03:01           0        9.26       0.243
  YS02001910           JUNCTION      0.00   645.57     0  03:01           0        5.33       0.217
  YS02001915           JUNCTION    417.97   645.56     0  03:01        3.07        5.37       0.102
  YS02001918           JUNCTION      0.00   315.45     0  02:28           0        2.32       0.052
  YS02001619           JUNCTION    414.81   414.81     0  03:01        3.08        3.08       0.384
  YS02001629           JUNCTION      0.00   233.13     0  02:22           0         1.6       1.782
  YS02001641           JUNCTION      0.00   488.86     0  02:22           0        4.91       0.421
  YS02001644           JUNCTION    460.96  1525.58     0  03:01        3.56        11.1       0.227
  YS02001652           JUNCTION      0.00   530.62     0  02:46           0        3.22       0.710
  YS02001655           JUNCTION      0.15   529.56     0  02:46     0.00443        3.24       0.749
  YS02001920           JUNCTION      2.87   314.55     0  02:28      0.0827         2.3       0.110
  YS02001923           JUNCTION      0.04   280.80     0  02:28     0.00109        2.21       0.050
  YS02001926           JUNCTION      0.05   226.09     0  03:00      0.0015         2.2       0.147
  YS02001929           JUNCTION    224.99   224.99     0  03:01         2.2         2.2       0.032
  YS02001658           JUNCTION      0.00   528.64     0  02:47           0        3.26       0.674
  YS02001661           JUNCTION      0.00   775.92     0  02:31           0        3.46      -0.285
  YS02001664           JUNCTION    506.09   506.09     0  02:51        3.25        3.46       0.062
  YS02001622           JUNCTION      0.00   415.33     0  03:00           0        3.06       1.034
  YS02001633           JUNCTION    469.71   488.53     0  02:22        3.66        5.09       0.628
  YS02001649           JUNCTION      0.00  1048.02     0  02:23           0         6.6       0.555
  YS02001757           JUNCTION      0.00  2134.78     0  02:28           0        12.9       0.716
  YS02001895           JUNCTION      0.00   527.26     0  02:26           0        3.94       0.122
  YS02001625           JUNCTION      0.00   497.49     0  03:00           0        3.16       1.222
  YS02163301           JUNCTION      0.00   232.53     0  02:22           0        1.58       1.521
  YS02163601           JUNCTION      0.11   488.17     0  02:22     0.00317        4.93       0.603
  YS02164001           JUNCTION      0.00   488.13     0  02:22           0        4.91       0.391
  YS02001647           JUNCTION      0.00   743.76     0  02:22           0        5.22       0.532
  YSB1154              JUNCTION     41.30    41.30     0  02:31        0.17       0.171       0.854
  YSB6556              JUNCTION      0.00    41.08     0  02:31           0       0.172       0.732
  YSB1174              JUNCTION     33.91    33.91     0  02:29       0.127       0.127       1.021
  YSB1171              JUNCTION      0.00    73.51     0  02:31           0       0.304       2.125
  YS02006553           JUNCTION      0.00   714.17     0  03:49           0        7.41       0.192
  YS02006561           JUNCTION      0.00  1150.44     0  02:57           0        11.3       0.005
  YS02006556           JUNCTION      0.00   715.02     0  03:49           0        7.42       0.127
  YS02006558           JUNCTION    604.44  1150.72     0  02:52        3.97        11.4       0.038
  YS02001783           JUNCTION      0.00  1150.31     0  02:57           0        11.3       0.017
  YS02001784           JUNCTION      1.06  1151.34     0  02:57      0.0305        11.4       0.031
  YS02001786           JUNCTION      0.06  1151.36     0  02:57     0.00162        11.4       0.031
  YS02001788           JUNCTION      0.07  1151.65     0  02:56     0.00204        11.4       0.019
  YS02001790           JUNCTION      0.15  1166.87     0  02:53     0.00446        11.4       0.022
  YS02001791           JUNCTION      0.00  1281.41     0  02:53           0        11.4       0.003
  YS02001793           JUNCTION      0.00  1235.17     0  02:43           0        11.4       0.000
  WSC                  OUTFALL       0.00   459.43     0  02:44           0        3.79       0.000
  3                    OUTFALL       0.00   545.67     0  02:36           0        7.74       0.000
  4                    OUTFALL       0.00   441.44     0  02:33           0        7.95       0.000
  5                    OUTFALL       0.00   459.45     0  02:44           0        11.3       0.000
  JK-storage           STORAGE       0.00  1257.68     0  02:44           0        11.5     -23.895
  CC-storage           STORAGE       0.00  2135.70     0  02:28           0        11.9      -0.162
  XR-storage           STORAGE    1136.02  1136.02     0  03:01        14.8        15.4      -2.855
  
  
  **********************
  Node Surcharge Summary
  **********************
  
  Surcharging occurs when water rises above the top of the highest conduit.
  ---------------------------------------------------------------------
                                               Max. Height   Min. Depth
                                   Hours       Above Crown    Below Rim
  Node                 Type      Surcharged         Meters       Meters
  ---------------------------------------------------------------------
  WS02006109           JUNCTION        0.61          0.100        1.720
  WS02006112           JUNCTION        0.24          0.040        1.640
  WS02006252           JUNCTION        6.27          0.193        0.907
  WS02006256           JUNCTION        6.52          2.050        0.000
  WS02006228           JUNCTION        0.59          0.116        2.084
  YS02001748           JUNCTION        5.11          0.299        0.891
  YS02001751           JUNCTION        5.73          0.568        0.632
  YS02001754           JUNCTION        5.82          0.778        0.372
  YS02001762           JUNCTION        6.05          1.031        0.119
  YS02001765           JUNCTION        6.03          0.979        0.121
  YS02001767           JUNCTION        6.01          0.940        0.090
  YS02001770           JUNCTION        5.94          0.896        0.024
  YS02001774           JUNCTION        6.04          0.985        0.065
  YS02001779           JUNCTION        5.82          0.680        0.000
  YS02001882           JUNCTION        1.49          0.637        0.193
  YS02001884           JUNCTION        1.50          0.679        0.191
  YS02001759           JUNCTION        6.07          1.065        0.145
  YS02001887           JUNCTION        1.57          0.765        0.185
  YS02001890           JUNCTION        1.59          0.760        0.000
  YS02001898           JUNCTION        1.44          0.533        0.207
  YS02001901           JUNCTION        1.54          0.677        0.193
  YS02001904           JUNCTION        1.52          0.637        0.213
  YS02001907           JUNCTION        2.22          0.950        0.000
  YS02001910           JUNCTION        1.63          0.797        0.303
  YS02001915           JUNCTION        1.47          0.621        0.379
  YS02001918           JUNCTION        1.31          0.323        0.487
  YS02001619           JUNCTION        5.75          0.505        0.105
  YS02001629           JUNCTION        5.75          0.470        0.000
  YS02001641           JUNCTION        6.03          0.935        0.165
  YS02001644           JUNCTION        6.04          0.920        0.000
  YS02001652           JUNCTION        5.84          0.977        0.153
  YS02001655           JUNCTION        5.75          0.920        0.280
  YS02001920           JUNCTION        1.33          0.412        0.728
  YS02001926           JUNCTION        0.01          0.093        0.807
  YS02001658           JUNCTION        5.20          0.802        0.498
  YS02001661           JUNCTION        0.07          0.643        0.747
  YS02001622           JUNCTION        5.75          0.517        0.103
  YS02001633           JUNCTION        6.02          0.939        0.121
  YS02001649           JUNCTION        6.06          1.050        0.000
  YS02001757           JUNCTION        6.14          1.158        0.052
  YS02001895           JUNCTION        1.46          0.566        0.184
  YS02001625           JUNCTION        5.88          0.780        0.000
  YS02163301           JUNCTION        6.00          0.893        0.137
  YS02163601           JUNCTION        6.06          0.999        0.081
  YS02164001           JUNCTION        6.03          0.924        0.176
  YS02001647           JUNCTION        5.85          0.805        0.095
  YS02006553           JUNCTION        2.30          0.990        0.200
  YS02006561           JUNCTION        1.32          0.253        0.897
  YS02006556           JUNCTION        1.84          0.941        0.409
  YS02006558           JUNCTION        1.80          0.929        0.471
  YS02001783           JUNCTION        1.59          0.638        0.962
  YS02001784           JUNCTION        1.55          0.577        0.913
  YS02001786           JUNCTION        1.42          0.416        1.014
  YS02001788           JUNCTION        0.79          0.278        1.202
  YS02001790           JUNCTION        0.90          0.436        0.721
  YS02001791           JUNCTION        0.89          0.411        1.509
  YS02001793           JUNCTION        1.01          0.735        1.865
  
  
  *********************
  Node Flooding Summary
  *********************
  
  Flooding refers to all water that overflows a node, whether it ponds or not.
  --------------------------------------------------------------------------
                                                             Total   Maximum
                                 Maximum   Time of Max       Flood    Ponded
                        Hours       Rate    Occurrence      Volume     Depth
  Node                 Flooded       LPS   days hr:min    10^6 ltr    Meters
  --------------------------------------------------------------------------
  WS02006256              5.58    978.40      0  00:00       8.696     0.000
  YS02001779              2.72    674.81      0  03:01       2.350     0.000
  YS02001890              0.74    171.12      0  02:47       0.325     0.000
  YS02001907              1.16    701.99      0  03:01       1.833     0.000
  YS02001629              0.01      3.72      0  02:21       0.000     0.000
  YS02001644              3.73   1525.54      0  03:01       8.533     0.000
  YS02001649              0.01     22.35      0  02:35       0.000     0.000
  YS02001625              1.78    497.40      0  03:00       1.644     0.000
  XR-storage              4.12    756.01      0  03:01       4.054     0.000
  
  
  **********************
  Storage Volume Summary
  **********************
  
  --------------------------------------------------------------------------------------------------
                         Average     Avg  Evap Exfil       Maximum     Max    Time of Max    Maximum
                          Volume    Pcnt  Pcnt  Pcnt        Volume    Pcnt     Occurrence    Outflow
  Storage Unit           1000 m3    Full  Loss  Loss       1000 m3    Full    days hr:min        LPS
  --------------------------------------------------------------------------------------------------
  JK-storage               0.056      19     0     0         0.288      99       0  03:14     983.00
  CC-storage               2.680      17     0     0         3.857      25       0  03:14     400.00
  XR-storage               0.690      75     0     0         0.926     100       0  02:45     380.00
  
  
  ***********************
  Outfall Loading Summary
  ***********************
  
  ---------------------------------------------------------------------------------------------------------------------------------
                         Flow       Avg       Max       Total         Total         Total         Total         Total         Total
                         Freq      Flow      Flow      Volume           COD            SS            TN            TP         NH4-N
  Outfall Node           Pcnt       LPS       LPS    10^6 ltr            kg            kg            kg            kg            kg
  ---------------------------------------------------------------------------------------------------------------------------------
  WSC                   99.97    158.49    459.43       3.789       508.832       933.552        24.419         2.725        14.346
  3                     99.98    310.12    545.67       7.739       427.014       829.004         8.363         0.601         4.073
  4                     99.97    314.04    441.44       7.948       747.772      1416.709        14.669         1.009         7.079
  5                     99.99    395.39    459.45      11.276      1317.757      2238.501        97.831        11.786        59.855
  ---------------------------------------------------------------------------------------------------------------------------------
  System                99.98   1178.05   1880.83      30.752      3001.375      5417.767       145.283        16.122        85.353
  
  
  ********************
  Link Flow Summary
  ********************
  
  -----------------------------------------------------------------------------
                                 Maximum  Time of Max   Maximum    Max/    Max/
                                  |Flow|   Occurrence   |Veloc|    Full    Full
  Link                 Type          LPS  days hr:min     m/sec    Flow   Depth
  -----------------------------------------------------------------------------
  WS02003066WSF200     CONDUIT    513.32     0  02:41      2.85    0.09    0.22
  WS02006287WS02006284 CONDUIT    661.60     0  02:34      2.37    0.31    0.39
  WS02006284WS02006280 CONDUIT    661.76     0  02:34      2.60    0.28    0.36
  WS02006280WS02006229 CONDUIT    661.76     0  02:34      4.22    0.14    0.25
  WS02006229WS02006228 CONDUIT    490.84     0  02:34      0.98    1.63    1.00
  WS02006256WS02006235 CONDUIT    289.81     0  02:18      4.46    3.07    1.00
  WS02006253WS02006251 CONDUIT    139.48     0  02:33      0.87    0.42    0.43
  WS02006252WS02006251 CONDUIT    400.91     0  06:10      3.19    1.47    1.00
  WS02006251WS02006249 CONDUIT     98.20     0  02:33      0.72    0.28    0.38
  WS02006249WS02006248 CONDUIT     98.15     0  02:33      0.83    0.54    0.35
  WS02006248WS02006247 CONDUIT     98.13     0  02:34      0.80    0.21    0.36
  WS02006247WS02006245 CONDUIT     98.10     0  02:34      0.76    0.78    0.37
  WS02006245WS02006243 CONDUIT     98.08     0  02:35      0.89    0.29    0.33
  WS02006243WS02006242 CONDUIT     98.03     0  02:35      0.77    0.21    0.38
  WS02006242WS02006240 CONDUIT     97.96     0  02:36      0.64    0.39    0.42
  WS02006240WS02006239 CONDUIT     97.97     0  02:37      0.80    0.31    0.37
  WS02006239WS02006238 CONDUIT     98.06     0  02:38      0.69    0.31    0.43
  WS02006238WS02006235 CONDUIT     98.23     0  02:38      1.17    0.22    0.45
  WS02006235WS02006234 CONDUIT    180.94     0  02:35      1.04    1.91    0.46
  WS02006234WS02006232 CONDUIT    180.88     0  02:35      0.82    0.37    0.66
  WS02006232WS02006231 CONDUIT    180.89     0  02:35      0.61    0.38    0.72
  WS02006231WS02006230 CONDUIT    181.02     0  02:34      0.64    2.75    0.69
  WS02006230WS02006229 CONDUIT    170.97     0  02:34      0.44    3.80    1.00
  WS02006228WS02006109 CONDUIT    490.84     0  02:34      0.98    2.14    1.00
  WS02006116WS02004401 CONDUIT    516.83     0  02:37      0.75    0.71    0.82
  WS02006115WS02006116 CONDUIT    517.68     0  02:35      0.87    0.66    0.74
  WS02006113WS02006111 CONDUIT    508.85     0  02:36      2.39    0.61    0.44
  WS02006112WS02006115 CONDUIT    522.97     0  02:36      0.73    0.31    0.86
  WS02006111WS02006112 CONDUIT    496.19     0  02:34      1.40    0.24    0.67
  WS02006110WS02006113 CONDUIT    492.52     0  02:35      1.19    0.45    0.77
  WS02006109WS02006110 CONDUIT    492.08     0  02:35      0.98    0.95    0.99
  WS02004411WS02004412 CONDUIT    513.60     0  02:40      0.90    0.73    0.68
  WS02004401WS02004402 CONDUIT    516.31     0  02:37      0.73    0.62    0.85
  WS02004413WS02003067 CONDUIT    513.31     0  02:41      1.08    0.22    0.58
  WS02004412WS02004413 CONDUIT    513.45     0  02:40      0.86    0.34    0.76
  WS02004410WS02004411 CONDUIT    513.99     0  02:39      0.92    0.70    0.67
  WS02004409WS02004410 CONDUIT    514.83     0  02:38      0.94    0.67    0.66
  WS02004407WS02004409 CONDUIT    515.86     0  02:38      1.43    0.18    0.47
  WS02004406WS02004407 CONDUIT    516.02     0  02:38      1.01    0.23    0.62
  WS02004405WS02004406 CONDUIT    516.33     0  02:37      0.67    1.02    0.94
  WS02004404WS02004405 CONDUIT    516.17     0  02:37      0.67    5.06    0.95
  WS02004403WS02004404 CONDUIT    515.98     0  02:37      0.69    0.37    0.91
  WS02004402WS02004403 CONDUIT    516.36     0  02:37      0.71    0.74    0.87
  WS02004139WS02001211 CONDUIT     79.14     0  02:44      0.48    0.10    0.22
  WS02004138WS02004139 CONDUIT    396.29     0  00:00      3.67    0.08    0.20
  WS02003067WS02003066 CONDUIT    513.33     0  02:41      1.18    0.16    0.41
  WS02001213WS02003059 CONDUIT     72.12     0  02:41      0.17    0.12    0.54
  WS02001212WS02001213 CONDUIT     71.90     0  02:42      0.77    0.11    0.18
  WS02001211WS02001212 CONDUIT     71.81     0  02:43      0.44    0.05    0.26
  WS02003072WS02003073 CONDUIT    457.69     0  02:43      1.34    0.99    0.34
  WS02003069WS02003072 CONDUIT    457.73     0  02:43      1.29    0.22    0.35
  WS02003060WS02003069 CONDUIT    457.47     0  02:42      1.57    0.18    0.31
  WS02003059WS02003060 CONDUIT     73.16     0  02:39      0.56    0.05    0.47
  HS02004901HS02004770 CONDUIT     32.81     0  02:31      0.09    0.12    0.51
  HS02004876HS02004881 CONDUIT    123.96     0  02:33      1.19    1.32    0.15
  HS02004870HS02004876 CONDUIT    100.53     0  02:33      0.81    0.07    0.18
  HS02004842HS02004848 CONDUIT     17.48     0  02:44      0.08    0.01    0.33
  HS02004837HS02004842 CONDUIT     17.87     0  02:44      0.42    0.01    0.35
  HS02004830HS02004837 CONDUIT     62.49     0  02:33      0.66    0.06    0.14
  HS02004824HS02004830 CONDUIT     62.61     0  02:34      0.62    0.08    0.16
  HS02004817HS02004824 CONDUIT    125.81     0  02:36      0.31    0.06    0.58
  HS02004770HS02004777 CONDUIT    169.65     0  02:31      0.46    0.31    0.52
  HS02004799HS02004480 CONDUIT    421.53     0  02:32      1.04    0.53    0.58
  HS02004792HS02004799 CONDUIT    386.75     0  02:32      1.17    0.24    0.47
  HS02004788HS02004792 CONDUIT    222.74     0  02:33      1.24    0.15    0.26
  HS02004785HS02004788 CONDUIT    169.61     0  02:33      0.87    1.28    0.28
  HS02004777HS02004785 CONDUIT    169.48     0  02:32      0.55    0.21    0.44
  HS02004480HS02004478 CONDUIT    494.81     0  02:33      1.52    2.08    0.47
  HS02004479HS02004480 CONDUIT     73.27     0  02:33      0.31    0.07    0.55
  HS02004862HS02004870 CONDUIT     77.30     0  02:34      0.79    0.08    0.14
  HS02004848HS02004852 CONDUIT     36.22     0  02:33      0.52    0.04    0.10
  HS02004856HS02004862 CONDUIT     53.65     0  02:33      0.58    0.05    0.13
  HS02004852HS02004856 CONDUIT     36.26     0  02:34      0.33    0.04    0.16
  HS02004802HS02004478 CONDUIT    169.22     0  02:36      0.52    0.15    0.47
  HS02004478WS02006287 CONDUIT    661.54     0  02:34      2.09    0.19    0.35
  HS02004817HS02004807 CONDUIT    127.27     0  02:37      0.25    0.08    0.75
  HS02004807HS02004802 CONDUIT    168.62     0  02:35      0.46    0.32    0.53
  YS02001759YS02001757 CONDUIT    868.39     0  02:29      1.11    0.62    1.00
  YS02001762YS02001759 CONDUIT    431.25     0  02:28      0.55    0.50    1.00
  YS02001765YS02001762 CONDUIT    432.04     0  02:28      0.55    0.41    1.00
  YS02001770YS02001767 CONDUIT    431.45     0  02:28      0.55    1.71    1.00
  YS02001774YS02001770 CONDUIT    674.69     0  03:01      0.86    0.43    1.00
  YS02001779YS02001774 CONDUIT    674.81     0  03:01      0.86    0.34    1.00
  YS02001649YS02001757 CONDUIT   1048.48     0  02:23      1.33    0.64    1.00
  YS02001767YS02001765 CONDUIT    432.11     0  02:28      0.55    0.54    1.00
  YS02006561YS02001783 CONDUIT   1150.31     0  02:57      2.29    0.60    1.00
  YS02001783YS02001784 CONDUIT   1150.28     0  02:57      2.29    1.59    1.00
  YS02001784YS02001785 CONDUIT   1151.31     0  02:57      2.29    2.68    1.00
  YS02001788YS02001790 CONDUIT   1166.72     0  02:53      2.72    0.86    1.00
  YS02001790YS02001791 CONDUIT   1281.41     0  02:53      3.44    1.39    1.00
  YS02001791YS02001793 CONDUIT   1235.17     0  02:43      6.76    0.53    1.00
  YS02001910YS02001907 CONDUIT    645.65     0  03:01      0.82    0.36    1.00
  YS02001786YS02001788 CONDUIT   1151.58     0  02:56      2.47    2.22    1.00
  YS02001915YS02001910 CONDUIT    645.57     0  03:01      0.82    0.32    1.00
  YS02001918YS02001915 CONDUIT    316.11     0  02:28      0.47    0.17    1.00
  YS02001923YS02001920 CONDUIT    311.68     0  02:28      0.80    0.14    1.00
  YS02001926YS02001923 CONDUIT    280.77     0  02:28      0.91    0.40    0.98
  YS02001929YS02001926 CONDUIT    226.04     0  03:00      0.97    0.11    0.89
  YS02001920YS02001918 CONDUIT    315.45     0  02:28      0.76    0.31    1.00
  YS02001629YS02163301 CONDUIT    232.53     0  02:22      0.30    0.29    1.00
  YS02001619YS02001622 CONDUIT    415.33     0  03:00      0.62    0.61    1.00
  YS02001622YS02001625 CONDUIT    414.97     0  03:00      0.53    0.22    1.00
  YS02001625YS02001629 CONDUIT    233.13     0  02:22      0.30    0.11    1.00
  YS02163301YS02001633 CONDUIT    232.44     0  02:22      0.30    0.22    1.00
  YS02163601YS02164001 CONDUIT    488.13     0  02:22      0.62    0.43    1.00
  YS02164001YS02001641 CONDUIT    488.86     0  02:22      0.62    0.67    1.00
  YS02001641YS02001644 CONDUIT    488.95     0  02:22      0.62    1.58    1.00
  YS02001647YS02001649 CONDUIT    743.54     0  02:22      0.95    0.39    1.00
  YS02006553YS02006556 CONDUIT    715.02     0  03:49      0.91    0.61    1.00
  YS02006556YS02006558 CONDUIT    715.06     0  03:49      0.91    0.56    1.00
  YSB6556YSB1171       CONDUIT     40.99     0  02:33      0.12    0.04    0.82
  YS02001907YS02006553 CONDUIT    714.17     0  03:49      0.79    0.84    1.00
  YS02006558YS02006561 CONDUIT   1150.44     0  02:57      4.07    2.54    1.00
  YS02001633YS02163601 CONDUIT    488.06     0  02:22      0.62    0.51    1.00
  YS02001644YS02001647 CONDUIT    743.76     0  02:22      0.95    0.44    1.00
  YS02001745YS02001748 CONDUIT    483.08     0  03:00      1.50    0.19    0.97
  YS02001748YS02001751 CONDUIT    483.31     0  03:00      1.07    0.24    1.00
  YS02001751YS02001754 CONDUIT    483.33     0  03:00      0.91    0.23    1.00
  YS02001754YS02001757 CONDUIT    483.27     0  03:00      0.62    0.19    1.00
  YS02001882YS02001884 CONDUIT     22.00     0  02:21      0.13    0.03    1.00
  YS02001884YS02001887 CONDUIT     27.20     0  02:20      0.09    0.04    1.00
  YS02001890YS02001895 CONDUIT    527.26     0  02:26      0.67    0.25    1.00
  YS02001895YS02001898 CONDUIT    528.57     0  02:26      0.67    0.92    1.00
  YS02001898YS02001901 CONDUIT    526.59     0  02:26      0.67    0.34    1.00
  YS02001901YS02001904 CONDUIT    525.65     0  02:26      0.67    0.82    1.00
  YS02001904YS02001907 CONDUIT    525.02     0  02:26      0.67    0.18    1.00
  YS02001887YS02001890 CONDUIT    687.66     0  02:48      0.88    1.18    1.00
  YS02001652YS02001649 CONDUIT    531.69     0  02:46      0.68    0.26    1.00
  YS02001655YS02001652 CONDUIT    530.62     0  02:46      0.97    0.26    1.00
  YS02001658YS02001655 CONDUIT    529.41     0  02:46      1.23    0.22    1.00
  YS02001661YS02001658 CONDUIT    528.64     0  02:47      1.59    0.21    1.00
  YS02001664YS02001661 CONDUIT    775.92     0  02:31      1.67    0.24    0.76
  YSB1154YSB6556       CONDUIT     41.08     0  02:31      0.15    0.07    0.72
  YSB1174YSB1171       CONDUIT     33.21     0  02:29      0.10    0.05    0.83
  YSB1171HS02004479    CONDUIT     73.31     0  02:32      0.54    0.05    0.67
  HS02004881HS02006253 CONDUIT    136.39     0  02:33      2.69    0.03    0.07
  YS02001793JiankangQianchi CONDUIT   1257.68     0  02:44     20.74    0.10    1.00
  YS02001757CaochengTiaoxuchi CONDUIT   2135.70     0  02:28      3.31    0.94    1.00
  WSF200WS02003060     CONDUIT    513.33     0  02:41      2.19    0.11    0.26
  1                    CONDUIT    459.43     0  02:44      2.68    0.16    0.27
  CC-Pump-1            PUMP       200.00     0  01:45              1.00
  CC-Pump-2            PUMP       200.00     0  01:45              1.00
  JK-Pump-1            PUMP       300.00     0  00:00              1.00
  JK-Pump-2            PUMP       683.00     0  00:00              1.00
  XR-Pump-1            PUMP        95.00     0  00:00              1.00
  XR-Pump-2            PUMP        95.00     0  00:00              1.00
  XR-Pump-3            PUMP        95.00     0  00:00              1.00
  XR-Pump-4            PUMP        95.00     0  00:00              1.00
  3                    WEIR       441.44     0  02:33                      0.26
  5                    WEIR       545.67     0  02:36                      0.30
  6                    WEIR       459.45     0  02:44                      0.27
  
  
  ***************************
  Flow Classification Summary
  ***************************
  
  -------------------------------------------------------------------------------------
                      Adjusted    ---------- Fraction of Time in Flow Class ---------- 
                       /Actual         Up    Down  Sub   Sup   Up    Down  Norm  Inlet 
  Conduit               Length    Dry  Dry   Dry   Crit  Crit  Crit  Crit  Ltd   Ctrl  
  -------------------------------------------------------------------------------------
  WS02003066WSF200        1.00   0.14  0.00  0.00  0.00  0.86  0.00  0.00  0.76  0.00
  WS02006287WS02006284    1.00   0.04  0.02  0.00  0.51  0.42  0.00  0.00  0.64  0.00
  WS02006284WS02006280    1.00   0.06  0.00  0.00  0.00  0.00  0.00  0.94  0.00  0.00
  WS02006280WS02006229    1.00   0.06  0.00  0.00  0.00  0.00  0.00  0.94  0.00  0.00
  WS02006229WS02006228    1.00   0.00  0.00  0.00  0.99  0.00  0.00  0.01  0.00  0.00
  WS02006256WS02006235    1.00   0.00  0.00  0.00  0.13  0.87  0.00  0.00  0.01  0.00
  WS02006253WS02006251    1.00   0.02  0.03  0.00  0.89  0.00  0.07  0.00  0.00  0.00
  WS02006252WS02006251    1.00   0.11  0.00  0.00  0.00  0.00  0.89  0.00  0.00  0.00
  WS02006251WS02006249    1.00   0.00  0.00  0.00  1.00  0.00  0.00  0.00  0.19  0.00
  WS02006249WS02006248    1.00   0.00  0.06  0.00  0.87  0.00  0.07  0.00  0.00  0.00
  WS02006248WS02006247    1.00   0.06  0.00  0.00  0.92  0.00  0.00  0.02  0.02  0.00
  WS02006247WS02006245    1.00   0.07  0.00  0.00  0.89  0.00  0.00  0.04  0.00  0.00
  WS02006245WS02006243    1.00   0.07  0.00  0.00  0.86  0.00  0.00  0.07  0.00  0.00
  WS02006243WS02006242    1.00   0.07  0.00  0.00  0.89  0.00  0.00  0.03  0.66  0.00
  WS02006242WS02006240    1.00   0.00  0.08  0.00  0.92  0.00  0.00  0.00  0.20  0.00
  WS02006240WS02006239    1.00   0.00  0.00  0.00  0.91  0.00  0.00  0.09  0.00  0.00
  WS02006239WS02006238    1.00   0.00  0.01  0.00  0.99  0.00  0.00  0.00  0.18  0.00
  WS02006238WS02006235    1.00   0.00  0.00  0.00  1.00  0.00  0.00  0.00  0.00  0.00
  WS02006235WS02006234    1.00   0.07  0.00  0.00  0.90  0.00  0.02  0.01  0.00  0.00
  WS02006234WS02006232    1.00   0.00  0.00  0.00  1.00  0.00  0.00  0.00  0.16  0.00
  WS02006232WS02006231    1.00   0.00  0.00  0.00  0.99  0.00  0.00  0.00  0.01  0.00
  WS02006231WS02006230    1.00   0.00  0.00  0.00  0.34  0.00  0.66  0.00  0.00  0.00
  WS02006230WS02006229    1.00   0.00  0.00  0.00  0.99  0.00  0.00  0.01  0.02  0.00
  WS02006228WS02006109    1.00   0.00  0.00  0.00  1.00  0.00  0.00  0.00  0.00  0.00
  WS02006116WS02004401    1.00   0.04  0.00  0.00  0.96  0.00  0.00  0.00  0.00  0.00
  WS02006115WS02006116    1.00   0.04  0.00  0.00  0.91  0.00  0.00  0.04  0.00  0.00
  WS02006113WS02006111    1.00   0.03  0.00  0.00  0.01  0.96  0.00  0.00  0.09  0.00
  WS02006112WS02006115    1.00   0.03  0.02  0.00  0.95  0.00  0.00  0.00  0.00  0.00
  WS02006111WS02006112    1.00   0.03  0.00  0.00  0.97  0.00  0.00  0.00  0.93  0.00
  WS02006110WS02006113    1.00   0.01  0.02  0.00  0.97  0.00  0.00  0.00  0.00  0.00
  WS02006109WS02006110    1.00   0.00  0.01  0.00  0.99  0.00  0.00  0.00  0.00  0.00
  WS02004411WS02004412    1.00   0.10  0.00  0.00  0.90  0.00  0.00  0.00  0.00  0.00
  WS02004401WS02004402    1.00   0.04  0.00  0.00  0.96  0.00  0.00  0.00  0.04  0.00
  WS02004413WS02003067    1.00   0.10  0.03  0.00  0.00  0.00  0.87  0.00  0.00  0.00
  WS02004412WS02004413    1.00   0.10  0.00  0.00  0.89  0.01  0.00  0.00  0.00  0.00
  WS02004410WS02004411    1.00   0.10  0.00  0.00  0.90  0.00  0.00  0.00  0.00  0.00
  WS02004409WS02004410    1.00   0.10  0.00  0.00  0.90  0.00  0.00  0.00  0.00  0.00
  WS02004407WS02004409    1.00   0.10  0.00  0.00  0.89  0.01  0.00  0.00  0.80  0.00
  WS02004406WS02004407    1.00   0.00  0.09  0.00  0.90  0.00  0.00  0.00  0.00  0.00
  WS02004405WS02004406    1.00   0.00  0.00  0.00  1.00  0.00  0.00  0.00  0.04  0.00
  WS02004404WS02004405    1.00   0.00  0.00  0.00  1.00  0.00  0.00  0.00  0.00  0.00
  WS02004403WS02004404    1.00   0.00  0.05  0.00  0.95  0.00  0.00  0.00  0.04  0.00
  WS02004402WS02004403    1.00   0.05  0.00  0.00  0.95  0.00  0.00  0.00  0.00  0.00
  WS02004139WS02001211    1.00   0.00  0.00  0.00  1.00  0.00  0.00  0.00  0.00  0.00
  WS02004138WS02004139    1.00   0.00  0.00  0.00  0.00  0.28  0.00  0.72  0.21  0.00
  WS02003067WS02003066    1.00   0.13  0.01  0.00  0.86  0.00  0.00  0.00  0.00  0.00
  WS02001213WS02003059    1.00   0.00  0.00  0.00  0.99  0.00  0.00  0.00  0.00  0.00
  WS02001212WS02001213    1.00   0.00  0.00  0.00  0.34  0.00  0.65  0.00  0.00  0.00
  WS02001211WS02001212    1.00   0.00  0.00  0.00  1.00  0.00  0.00  0.00  0.12  0.00
  WS02003072WS02003073    1.00   0.00  0.00  0.00  0.00  0.00  0.00  1.00  0.00  0.00
  WS02003069WS02003072    1.00   0.00  0.00  0.00  1.00  0.00  0.00  0.00  0.90  0.00
  WS02003060WS02003069    1.00   0.00  0.00  0.00  0.98  0.02  0.00  0.00  0.81  0.00
  WS02003059WS02003060    1.00   0.00  0.00  0.00  1.00  0.00  0.00  0.00  0.05  0.00
  HS02004901HS02004770    1.00   0.05  0.00  0.00  0.95  0.00  0.00  0.00  0.00  0.00
  HS02004876HS02004881    1.00   0.01  0.00  0.00  0.79  0.20  0.00  0.00  0.00  0.00
  HS02004870HS02004876    1.00   0.00  0.00  0.00  0.99  0.00  0.00  0.00  0.95  0.00
  HS02004842HS02004848    1.00   0.00  0.05  0.00  0.95  0.00  0.00  0.00  0.56  0.00
  HS02004837HS02004842    1.00   0.00  0.00  0.00  1.00  0.00  0.00  0.00  0.11  0.00
  HS02004830HS02004837    1.00   0.00  0.00  0.00  1.00  0.00  0.00  0.00  0.99  0.00
  HS02004824HS02004830    1.00   0.00  0.00  0.00  1.00  0.00  0.00  0.00  0.04  0.00
  HS02004817HS02004824    1.00   0.00  0.00  0.00  1.00  0.00  0.00  0.00  0.93  0.00
  HS02004770HS02004777    1.00   0.00  0.05  0.00  0.95  0.00  0.00  0.00  0.02  0.00
  HS02004799HS02004480    1.00   0.00  0.02  0.00  0.93  0.00  0.05  0.00  0.00  0.00
  HS02004792HS02004799    1.00   0.00  0.00  0.00  0.99  0.01  0.00  0.00  0.98  0.00
  HS02004788HS02004792    1.00   0.00  0.00  0.00  0.99  0.01  0.00  0.00  0.98  0.00
  HS02004785HS02004788    1.00   0.00  0.00  0.00  1.00  0.00  0.00  0.00  0.00  0.00
  HS02004777HS02004785    1.00   0.00  0.00  0.00  1.00  0.00  0.00  0.00  0.12  0.00
  HS02004480HS02004478    1.00   0.06  0.00  0.00  0.56  0.00  0.00  0.39  0.00  0.00
  HS02004479HS02004480    1.00   0.02  0.00  0.00  0.98  0.00  0.00  0.00  0.11  0.00
  HS02004862HS02004870    1.00   0.00  0.00  0.00  1.00  0.00  0.00  0.00  0.03  0.00
  HS02004848HS02004852    1.00   0.05  0.00  0.00  0.95  0.00  0.00  0.00  0.71  0.00
  HS02004856HS02004862    1.00   0.00  0.07  0.00  0.93  0.00  0.00  0.00  0.83  0.00
  HS02004852HS02004856    1.00   0.05  0.00  0.00  0.94  0.00  0.00  0.00  0.76  0.00
  HS02004802HS02004478    1.00   0.06  0.00  0.00  0.94  0.00  0.00  0.00  0.02  0.00
  HS02004478WS02006287    1.00   0.07  0.00  0.00  0.62  0.32  0.00  0.00  0.64  0.00
  HS02004817HS02004807    1.00   0.00  0.05  0.00  0.95  0.00  0.00  0.00  0.01  0.00
  HS02004807HS02004802    1.00   0.05  0.00  0.00  0.94  0.00  0.00  0.01  0.00  0.00
  YS02001759YS02001757    1.00   0.00  0.00  0.00  1.00  0.00  0.00  0.00  0.15  0.00
  YS02001762YS02001759    1.00   0.00  0.00  0.00  1.00  0.00  0.00  0.00  0.03  0.00
  YS02001765YS02001762    1.00   0.00  0.00  0.00  1.00  0.00  0.00  0.00  0.13  0.00
  YS02001770YS02001767    1.00   0.00  0.00  0.00  1.00  0.00  0.00  0.00  0.00  0.00
  YS02001774YS02001770    1.00   0.00  0.06  0.00  0.94  0.00  0.00  0.00  0.03  0.00
  YS02001779YS02001774    1.00   0.00  0.00  0.00  1.00  0.00  0.00  0.00  0.18  0.00
  YS02001649YS02001757    1.00   0.00  0.00  0.00  1.00  0.00  0.00  0.00  0.15  0.00
  YS02001767YS02001765    1.00   0.00  0.00  0.00  1.00  0.00  0.00  0.00  0.00  0.00
  YS02006561YS02001783    1.00   0.08  0.00  0.00  0.30  0.62  0.00  0.00  0.43  0.00
  YS02001783YS02001784    1.00   0.00  0.08  0.00  0.92  0.00  0.00  0.00  0.01  0.00
  YS02001784YS02001785    1.00   0.00  0.00  0.00  1.00  0.00  0.00  0.00  0.17  0.00
  YS02001788YS02001790    1.00   0.00  0.00  0.00  0.25  0.75  0.00  0.00  0.41  0.00
  YS02001790YS02001791    1.00   0.00  0.00  0.00  0.13  0.87  0.00  0.00  0.57  0.00
  YS02001791YS02001793    1.00   0.00  0.00  0.00  0.14  0.86  0.00  0.00  0.01  0.00
  YS02001910YS02001907    1.00   0.00  0.00  0.00  0.99  0.00  0.00  0.01  0.12  0.00
  YS02001786YS02001788    1.00   0.00  0.00  0.00  0.33  0.67  0.00  0.00  0.00  0.00
  YS02001915YS02001910    1.00   0.00  0.00  0.00  0.99  0.01  0.00  0.00  0.15  0.00
  YS02001918YS02001915    1.00   0.00  0.00  0.00  0.99  0.01  0.00  0.00  0.52  0.00
  YS02001923YS02001920    1.00   0.00  0.00  0.00  1.00  0.00  0.00  0.00  0.78  0.00
  YS02001926YS02001923    1.00   0.00  0.03  0.00  0.23  0.00  0.74  0.00  0.00  0.00
  YS02001929YS02001926    1.00   0.00  0.05  0.00  0.95  0.00  0.00  0.00  0.70  0.00
  YS02001920YS02001918    1.00   0.00  0.00  0.00  1.00  0.00  0.00  0.00  0.00  0.00
  YS02001629YS02163301    1.00   0.06  0.00  0.00  0.93  0.00  0.00  0.00  0.00  0.00
  YS02001619YS02001622    1.00   0.05  0.00  0.00  0.95  0.00  0.00  0.00  0.00  0.00
  YS02001622YS02001625    1.00   0.05  0.00  0.00  0.95  0.00  0.00  0.00  0.04  0.00
  YS02001625YS02001629    1.00   0.06  0.03  0.00  0.89  0.00  0.03  0.00  0.00  0.00
  YS02163301YS02001633    1.00   0.00  0.06  0.00  0.94  0.00  0.00  0.00  0.00  0.00
  YS02163601YS02164001    1.00   0.00  0.04  0.00  0.96  0.00  0.00  0.00  0.00  0.00
  YS02164001YS02001641    1.00   0.01  0.03  0.00  0.96  0.00  0.00  0.00  0.05  0.00
  YS02001641YS02001644    1.00   0.00  0.00  0.00  1.00  0.00  0.00  0.00  0.00  0.00
  YS02001647YS02001649    1.00   0.00  0.07  0.00  0.93  0.00  0.00  0.00  0.01  0.00
  YS02006553YS02006556    1.00   0.01  0.00  0.00  0.99  0.00  0.00  0.00  0.03  0.00
  YS02006556YS02006558    1.00   0.00  0.00  0.00  1.00  0.00  0.00  0.00  0.00  0.00
  YSB6556YSB1171          1.00   0.02  0.03  0.00  0.95  0.00  0.00  0.00  0.00  0.00
  YS02001907YS02006553    1.00   0.00  0.01  0.00  0.99  0.00  0.00  0.00  0.00  0.00
  YS02006558YS02006561    1.00   0.08  0.00  0.00  0.22  0.70  0.00  0.00  0.47  0.00
  YS02001633YS02163601    1.00   0.00  0.00  0.00  0.99  0.00  0.00  0.00  0.15  0.00
  YS02001644YS02001647    1.00   0.00  0.07  0.00  0.93  0.00  0.00  0.00  0.00  0.00
  YS02001745YS02001748    1.00   0.00  0.00  0.00  0.84  0.01  0.00  0.15  0.04  0.00
  YS02001748YS02001751    1.00   0.00  0.00  0.00  0.95  0.05  0.00  0.00  0.15  0.00
  YS02001751YS02001754    1.00   0.00  0.00  0.00  0.91  0.00  0.00  0.09  0.02  0.00
  YS02001754YS02001757    1.00   0.00  0.00  0.00  1.00  0.00  0.00  0.00  0.17  0.00
  YS02001882YS02001884    1.00   0.06  0.00  0.00  0.93  0.00  0.00  0.00  0.00  0.00
  YS02001884YS02001887    1.00   0.03  0.02  0.00  0.95  0.00  0.00  0.00  0.00  0.00
  YS02001890YS02001895    1.00   0.00  0.06  0.00  0.93  0.00  0.00  0.00  0.00  0.00
  YS02001895YS02001898    1.00   0.07  0.00  0.00  0.91  0.00  0.02  0.00  0.00  0.00
  YS02001898YS02001901    1.00   0.07  0.00  0.00  0.93  0.00  0.00  0.00  0.01  0.00
  YS02001901YS02001904    1.00   0.07  0.00  0.00  0.93  0.00  0.00  0.00  0.00  0.00
  YS02001904YS02001907    1.00   0.00  0.07  0.00  0.93  0.00  0.00  0.00  0.00  0.00
  YS02001887YS02001890    1.00   0.00  0.00  0.00  0.99  0.00  0.01  0.00  0.00  0.00
  YS02001652YS02001649    1.00   0.00  0.00  0.00  1.00  0.00  0.00  0.00  0.16  0.00
  YS02001655YS02001652    1.00   0.00  0.00  0.00  0.91  0.00  0.00  0.09  0.02  0.00
  YS02001658YS02001655    1.00   0.00  0.06  0.00  0.89  0.05  0.00  0.00  0.08  0.00
  YS02001661YS02001658    1.00   0.06  0.00  0.00  0.84  0.10  0.00  0.00  0.04  0.00
  YS02001664YS02001661    1.00   0.05  0.00  0.00  0.84  0.11  0.00  0.00  0.17  0.00
  YSB1154YSB6556          1.00   0.05  0.00  0.00  0.95  0.00  0.00  0.00  0.02  0.00
  YSB1174YSB1171          1.00   0.02  0.02  0.00  0.96  0.00  0.00  0.00  0.00  0.00
  YSB1171HS02004479       1.00   0.02  0.00  0.00  0.98  0.00  0.00  0.01  0.10  0.00
  HS02004881HS02006253    1.00   0.02  0.00  0.00  0.00  0.00  0.00  0.98  0.00  0.00
  YS02001793JiankangQianchi    1.00   0.00  0.00  0.00  0.21  0.79  0.00  0.00  0.07  0.00
  YS02001757CaochengTiaoxuchi    1.00   0.00  0.11  0.00  0.80  0.10  0.00  0.00  0.00  0.00
  WSF200WS02003060        1.00   0.00  0.14  0.00  0.00  0.86  0.00  0.00  0.57  0.00
  1                       1.00   0.00  0.00  0.00  0.00  1.00  0.00  0.00  0.26  0.00
  
  
  *************************
  Conduit Surcharge Summary
  *************************
  
  ----------------------------------------------------------------------------
                                                           Hours        Hours 
                         --------- Hours Full --------   Above Full   Capacity
  Conduit                Both Ends  Upstream  Dnstream   Normal Flow   Limited
  ----------------------------------------------------------------------------
  WS02006229WS02006228        0.59      0.63      0.59      1.13         0.59
  WS02006256WS02006235        0.01      0.01      6.52      6.49         0.01
  WS02006252WS02006251        6.25      6.25      6.27      6.27         0.01
  WS02006235WS02006234        0.01      0.01      0.01      0.55         0.01
  WS02006231WS02006230        0.01      0.01      0.01      0.73         0.01
  WS02006230WS02006229        0.81      0.81      0.82      4.07         0.02
  WS02006228WS02006109        0.61      0.73      0.61      1.52         0.61
  WS02006112WS02006115        0.01      0.01      0.24      0.01         0.01
  WS02006111WS02006112        0.01      0.01      1.26      0.01         0.01
  WS02006110WS02006113        0.01      0.01      0.68      0.01         0.01
  WS02006109WS02006110        0.01      0.01      0.73      0.01         0.01
  WS02004405WS02004406        0.01      0.01      0.01      0.13         0.01
  WS02004404WS02004405        0.01      0.01      0.01      2.27         0.01
  HS02004876HS02004881        0.01      0.01      0.01      0.51         0.01
  HS02004785HS02004788        0.01      0.01      0.01      0.44         0.01
  HS02004480HS02004478        0.01      0.01      0.01      0.97         0.01
  YS02001759YS02001757        6.07      6.07      6.14      0.01         0.01
  YS02001762YS02001759        6.05      6.05      6.07      0.01         0.01
  YS02001765YS02001762        6.03      6.03      6.05      0.01         0.01
  YS02001770YS02001767        6.00      6.00      6.01      0.38         0.75
  YS02001774YS02001770        5.94      5.94      6.04      0.01         0.01
  YS02001779YS02001774        5.82      5.82      6.04      0.01         0.01
  YS02001649YS02001757        6.06      6.06      6.14      0.01         0.01
  YS02001767YS02001765        6.01      6.01      6.03      0.01         0.01
  YS02006561YS02001783        1.32      1.32      1.59      0.01         0.01
  YS02001783YS02001784        1.55      1.59      1.55      1.91         1.55
  YS02001784YS02001785        1.42      1.55      1.42      2.76         1.42
  YS02001788YS02001790        0.79      0.79      0.90      0.01         0.01
  YS02001790YS02001791        0.89      0.90      0.89      1.53         0.89
  YS02001791YS02001793        0.89      0.89      1.06      0.01         0.01
  YS02001910YS02001907        1.63      1.63      2.22      0.01         0.01
  YS02001786YS02001788        0.79      1.42      0.79      2.35         0.79
  YS02001915YS02001910        1.47      1.47      1.63      0.01         0.01
  YS02001918YS02001915        1.31      1.31      1.47      0.01         0.01
  YS02001923YS02001920        1.15      1.15      1.33      0.01         0.01
  YS02001926YS02001923        0.01      0.01      0.01      0.01         0.01
  YS02001929YS02001926        0.01      0.01      0.01      0.01         0.01
  YS02001920YS02001918        1.31      1.31      1.33      0.01         0.01
  YS02001629YS02163301        5.97      5.97      6.00      0.01         0.01
  YS02001619YS02001622        5.75      5.75      5.75      0.01         0.02
  YS02001622YS02001625        5.75      5.75      5.88      0.01         0.01
  YS02001625YS02001629        5.75      5.75      5.88      0.01         0.01
  YS02163301YS02001633        6.00      6.00      6.03      0.01         0.01
  YS02163601YS02164001        6.03      6.03      6.06      0.01         0.01
  YS02164001YS02001641        6.03      6.03      6.03      0.01         0.01
  YS02001641YS02001644        6.03      6.03      6.04      2.09         2.39
  YS02001647YS02001649        5.85      5.85      6.06      0.01         0.01
  YS02006553YS02006556        1.84      1.84      2.30      0.01         0.01
  YS02006556YS02006558        1.98      1.98      2.36      0.01         0.01
  YSB6556YSB1171              0.01      0.01      0.17      0.01         0.01
  YS02001907YS02006553        2.78      2.78      2.99      0.01         0.01
  YS02006558YS02006561        1.41      1.80      1.41      2.62         1.41
  YS02001633YS02163601        6.02      6.02      6.06      0.01         0.01
  YS02001644YS02001647        5.85      5.85      6.04      0.01         0.01
  YS02001745YS02001748        0.01      0.01      5.11      0.01         0.01
  YS02001748YS02001751        5.48      5.48      5.73      0.01         0.01
  YS02001751YS02001754        5.73      5.73      5.82      0.01         0.01
  YS02001754YS02001757        5.85      5.85      6.14      0.01         0.01
  YS02001882YS02001884        1.49      1.49      1.50      0.01         0.01
  YS02001884YS02001887        1.54      1.54      1.57      0.01         0.01
  YS02001890YS02001895        1.46      1.46      1.65      0.01         0.01
  YS02001895YS02001898        1.44      1.44      1.46      0.01         0.01
  YS02001898YS02001901        1.46      1.46      1.54      0.01         0.01
  YS02001901YS02001904        1.52      1.52      1.54      0.01         0.01
  YS02001904YS02001907        1.52      1.52      2.32      0.01         0.01
  YS02001887YS02001890        1.59      1.59      1.62      0.60         0.01
  YS02001652YS02001649        5.86      5.86      6.06      0.01         0.01
  YS02001655YS02001652        5.74      5.74      5.84      0.01         0.01
  YS02001658YS02001655        5.20      5.20      5.74      0.01         0.01
  YS02001661YS02001658        0.06      0.06      5.20      0.01         0.01
  YS02001664YS02001661        0.01      0.01      1.06      0.01         0.01
  YS02001793JiankangQianchi        1.01      1.01      1.71      0.01         0.01
  YS02001757CaochengTiaoxuchi        5.34      5.34      6.14      0.01         0.01
  
  
  ***************
  Pumping Summary
  ***************
  
  ---------------------------------------------------------------------------------------------------------
                                                  Min       Avg       Max     Total     Power    % Time Off
                        Percent   Number of      Flow      Flow      Flow    Volume     Usage    Pump Curve
  Pump                 Utilized   Start-Ups       LPS       LPS       LPS  10^6 ltr     Kw-hr    Low   High
  ---------------------------------------------------------------------------------------------------------
  CC-Pump-1               79.09           1      0.00    197.32    200.00     4.522      8.48    0.0   10.0
  CC-Pump-2               79.09           1      0.00    197.32    200.00     4.522      8.48    0.0   10.0
  JK-Pump-1              100.00           1      0.00    232.52    300.00     5.752    108.80    0.0    0.0
  JK-Pump-2              100.00           1      0.00    391.64    683.00     9.368    162.20    0.0   98.0
  XR-Pump-1              100.00           1      0.00     95.00     95.00     2.736     29.06    0.0    0.0
  XR-Pump-2              100.00           1      0.00     95.00     95.00     2.736     29.06    0.0    0.0
  XR-Pump-3              100.00           1      0.00     95.00     95.00     2.736     29.06    0.0    0.0
  XR-Pump-4              100.00           1      0.00     95.00     95.00     2.736     29.06    0.0    0.0
  
  
  ***************************
  Link Pollutant Load Summary
  ***************************
  
  ------------------------------------------------------------------------------------------
                                 COD            SS            TN            TP         NH4-N
  Link                            kg            kg            kg            kg            kg
  ------------------------------------------------------------------------------------------
  WS02003066WSF200           397.910       766.066        11.849         1.129         6.418
  WS02006287WS02006284       405.989       786.841        12.084         1.152         6.545
  WS02006284WS02006280       406.482       787.636        12.132         1.158         6.575
  WS02006280WS02006229       406.464       787.609        12.130         1.157         6.573
  WS02006229WS02006228       383.135       736.927        11.565         1.106         6.282
  WS02006256WS02006235       250.590       487.699         4.846         0.349         2.365
  WS02006253WS02006251        69.808       140.721         1.449         0.104         0.705
  WS02006252WS02006251       834.641      1573.064        16.247         1.110         7.827
  WS02006251WS02006249       156.871       297.323         3.073         0.211         1.482
  WS02006249WS02006248       156.608       296.851         3.066         0.211         1.479
  WS02006248WS02006247       156.433       296.542         3.063         0.210         1.477
  WS02006247WS02006245       156.211       296.146         3.058         0.210         1.475
  WS02006245WS02006243       155.918       295.616         3.051         0.210         1.472
  WS02006243WS02006242       155.622       295.088         3.045         0.209         1.469
  WS02006242WS02006240       155.180       294.296         3.036         0.209         1.464
  WS02006240WS02006239       154.915       293.819         3.030         0.208         1.461
  WS02006239WS02006238       154.590       293.224         3.023         0.208         1.458
  WS02006238WS02006235       154.532       293.130         3.022         0.208         1.457
  WS02006235WS02006234        73.614       146.067         1.524         0.117         0.752
  WS02006234WS02006232        74.448       147.749         1.542         0.118         0.761
  WS02006232WS02006231        75.666       150.187         1.570         0.120         0.775
  WS02006231WS02006230        76.552       151.950         1.590         0.122         0.785
  WS02006230WS02006229        78.852       156.513         1.643         0.126         0.811
  WS02006228WS02006109       382.567       735.988        11.518         1.100         6.253
  WS02006116WS02004401       403.931       775.785        12.345         1.190         6.726
  WS02006115WS02006116       404.411       776.568        12.390         1.195         6.753
  WS02006113WS02006111       389.837       747.615        12.228         1.189         6.697
  WS02006112WS02006115       404.900       777.342        12.433         1.201         6.780
  WS02006111WS02006112       389.710       747.420        12.214         1.187         6.688
  WS02006110WS02006113       389.971       747.816        12.242         1.191         6.705
  WS02006109WS02006110       390.627       748.853        12.302         1.198         6.743
  WS02004411WS02004412       399.403       768.318        11.992         1.147         6.508
  WS02004401WS02004402       403.267       774.717        12.290         1.183         6.692
  WS02004413WS02003067       398.402       766.918        11.882         1.133         6.439
  WS02004412WS02004413       398.833       767.399        11.943         1.141         6.477
  WS02004410WS02004411       399.811       768.991        12.026         1.151         6.529
  WS02004409WS02004410       400.104       769.444        12.054         1.155         6.546
  WS02004407WS02004409       400.405       769.965        12.076         1.157         6.560
  WS02004406WS02004407       400.574       770.288        12.085         1.158         6.565
  WS02004405WS02004406       402.042       772.621        12.217         1.175         6.647
  WS02004404WS02004405       402.692       773.767        12.258         1.179         6.672
  WS02004403WS02004404       401.992       772.651        12.185         1.170         6.626
  WS02004402WS02004403       402.591       773.608        12.235         1.176         6.657
  WS02004139WS02001211        59.384       104.342         3.879         0.461         2.357
  WS02004138WS02004139      1256.465      2131.091        93.772        11.302        57.384
  WS02003067WS02003066       397.909       766.035        11.852         1.130         6.421
  WS02001213WS02003059        54.197        98.467         2.946         0.339         1.759
  WS02001212WS02001213        56.482       100.892         3.390         0.398         2.044
  WS02001211WS02001212        57.516       101.896         3.603         0.426         2.181
  WS02003072WS02003073       496.998       915.196        23.196         2.571        13.578
  WS02003069WS02003072       498.236       916.954        23.345         2.590        13.672
  WS02003060WS02003069       496.558       914.288        23.179         2.569        13.568
  WS02003059WS02003060        57.833       106.745         2.853         0.322         1.684
  HS02004901HS02004770        17.569        34.631         0.333         0.025         0.157
  HS02004876HS02004881        59.428       119.667         1.276         0.093         0.624
  HS02004870HS02004876        45.099        90.698         1.013         0.074         0.498
  HS02004842HS02004848         8.487        16.549         0.175         0.012         0.081
  HS02004837HS02004842        13.100        23.873         0.643         0.071         0.375
  HS02004830HS02004837        79.153       140.758         4.887         0.575         2.957
  HS02004824HS02004830        79.943       142.043         4.961         0.584         3.004
  HS02004817HS02004824       113.716       211.091         5.648         0.628         3.338
  HS02004770HS02004777        66.867       133.522         1.368         0.094         0.635
  HS02004799HS02004480       214.723       418.420         5.304         0.458         2.708
  HS02004792HS02004799       195.420       378.664         4.987         0.440         2.564
  HS02004788HS02004792       107.140       208.032         3.171         0.293         1.683
  HS02004785HS02004788        68.342       135.880         1.521         0.113         0.731
  HS02004777HS02004785        67.655       134.771         1.458         0.106         0.692
  HS02004480HS02004478       269.191       527.432         6.240         0.526         3.153
  HS02004479HS02004480        58.083       114.794         1.257         0.108         0.645
  HS02004862HS02004870        34.238        67.953         0.798         0.062         0.395
  HS02004848HS02004852        14.240        28.126         0.289         0.020         0.134
  HS02004856HS02004862        23.495        47.251         0.467         0.031         0.220
  HS02004852HS02004856        14.246        28.135         0.289         0.020         0.134
  HS02004802HS02004478       137.528       260.573         5.904         0.633         3.428
  HS02004478WS02006287       406.166       787.121        12.101         1.154         6.555
  HS02004817HS02004807       112.480       209.110         5.528         0.613         3.263
  HS02004807HS02004802       137.776       260.967         5.937         0.637         3.449
  YS02001759YS02001757       529.341       999.610        10.360         0.722         5.048
  YS02001762YS02001759       194.430       362.556         4.118         0.288         2.035
  YS02001765YS02001762       195.311       365.149         4.152         0.291         2.054
  YS02001770YS02001767       196.530       370.092         3.966         0.261         1.925
  YS02001774YS02001770       289.676       575.088         5.558         0.370         2.686
  YS02001779YS02001774       288.398       572.576         5.614         0.380         2.728
  YS02001649YS02001757       384.983       698.313         7.665         0.542         3.663
  YS02001767YS02001765       196.755       368.754         4.192         0.294         2.075
  YS02006561YS02001783      1239.222      2336.142        25.603         1.897        12.689
  YS02001783YS02001784      1239.198      2336.153        25.600         1.897        12.687
  YS02001784YS02001785      1246.782      2348.366        26.329         1.988        13.143
  YS02001788YS02001790      1247.534      2349.685        26.405         1.998        13.191
  YS02001790YS02001791      1248.729      2351.778        26.509         2.010        13.255
  YS02001791YS02001793      1248.809      2351.973        26.507         2.010        13.254
  YS02001910YS02001907       518.461       976.016        11.850         0.883         6.003
  YS02001786YS02001788      1247.102      2348.977        26.359         1.992        13.162
  YS02001915YS02001910       518.445       975.952        11.802         0.876         5.971
  YS02001918YS02001915       250.949       452.626         6.361         0.556         3.364
  YS02001923YS02001920       227.662       413.965         4.325         0.305         2.099
  YS02001926YS02001923       225.592       410.387         4.231         0.295         2.044
  YS02001929YS02001926       224.684       408.829         4.179         0.289         2.013
  YS02001920YS02001918       248.456       447.454         6.286         0.550         3.324
  YS02001629YS02163301       106.085       190.499         2.202         0.146         1.033
  YS02001619YS02001622       236.852       441.859         4.793         0.317         2.248
  YS02001622YS02001625       235.728       440.084         4.765         0.316         2.235
  YS02001625YS02001629       103.432       184.651         2.166         0.142         1.014
  YS02163301YS02001633       109.560       197.693         2.255         0.150         1.060
  YS02163601YS02164001       492.650       905.664         9.500         0.684         4.563
  YS02164001YS02001641       492.256       905.009         9.482         0.682         4.552
  YS02001641YS02001644       492.615       905.554         9.483         0.682         4.552
  YS02001647YS02001649       468.663       862.312         9.247         0.655         4.401
  YS02006553YS02006556       795.356      1482.227        16.887         1.282         8.465
  YS02006556YS02006558       795.588      1482.660        16.862         1.278         8.447
  YSB6556YSB1171              33.715        66.841         0.670         0.055         0.336
  YS02001907YS02006553       795.261      1482.067        16.896         1.283         8.471
  YS02006558YS02006561      1239.156      2335.995        25.601         1.897        12.688
  YS02001633YS02163601       493.264       906.593         9.478         0.680         4.545
  YS02001644YS02001647       474.816       874.421         9.346         0.662         4.449
  YS02001745YS02001748       324.891       622.346         6.412         0.400         3.079
  YS02001748YS02001751       324.276       621.282         6.422         0.403         3.088
  YS02001751YS02001754       323.367       619.794         6.406         0.402         3.082
  YS02001754YS02001757       324.233       621.117         6.576         0.425         3.191
  YS02001882YS02001884         3.880         6.793         0.077         0.006         0.038
  YS02001884YS02001887         7.071        12.598         0.138         0.011         0.068
  YS02001890YS02001895       554.709      1057.861        10.239         0.773         4.996
  YS02001895YS02001898       554.642      1057.838        10.234         0.773         4.993
  YS02001898YS02001901       554.522      1057.633        10.231         0.773         4.992
  YS02001901YS02001904       554.465      1057.615        10.238         0.774         4.997
  YS02001904YS02001907       554.846      1058.231        10.295         0.781         5.033
  YS02001887YS02001890       619.130      1186.893        11.417         0.865         5.574
  YS02001652YS02001649       290.007       548.624         5.778         0.417         2.714
  YS02001655YS02001652       290.818       549.890         5.800         0.419         2.724
  YS02001658YS02001655       290.592       549.508         5.718         0.408         2.669
  YS02001661YS02001658       291.423       550.866         5.738         0.409         2.678
  YS02001664YS02001661       299.266       563.232         5.924         0.421         2.763
  YSB1154YSB6556              33.304        66.199         0.621         0.049         0.305
  YSB1174YSB1171              22.855        45.535         0.452         0.036         0.225
  YSB1171HS02004479           58.040       114.726         1.260         0.109         0.647
  HS02004881HS02006253        66.680       134.493         1.412         0.102         0.690
  YS02001793JiankangQianchi      1249.121      2352.636        26.510         2.010        13.255
  YS02001757CaochengTiaoxuchi      1045.676      1949.474        20.691         1.416         9.985
  WSF200WS02003060           397.729       765.715        11.841         1.128         6.414
  1                          508.832       933.552        24.419         2.725        14.346
  CC-Pump-1                  417.353       786.587         8.124         0.555         3.914
  CC-Pump-2                  417.353       786.587         8.124         0.555         3.914
  JK-Pump-1                  267.393       520.342         5.171         0.373         2.524
  JK-Pump-2                  608.765      1184.646        11.773         0.849         5.747
  XR-Pump-1                  314.416       533.273        23.467         2.828        14.361
  XR-Pump-2                  314.416       533.273        23.467         2.828        14.361
  XR-Pump-3                  314.416       533.273        23.467         2.828        14.361
  XR-Pump-4                  314.416       533.273        23.467         2.828        14.361
  3                          747.772      1416.709        14.669         1.009         7.079
  5                          427.014       829.004         8.363         0.601         4.073
  6                         1317.757      2238.501        97.831        11.786        59.855
  

  Analysis begun on:  Thu Jul  8 15:10:18 2021
  Analysis ended on:  Thu Jul  8 15:10:20 2021
  Total elapsed time: 00:00:02