
  EPA STORM WATER MANAGEMENT MODEL - VERSION 5.1 (Build 5.3.0.dev0)
  --------------------------------------------------------------

  WARNING 04: minimum elevation drop used for Conduit WS02004404WS02004405
  WARNING 03: negative offset ignored for Link YS02001904YS02001907
  
  *********************************************************
  NOTE: The summary statistics displayed in this report are
  based on results found at every computational time step,  
  not just on results from each reporting time step.
  *********************************************************
  
  ****************
  Analysis Options
  ****************
  Flow Units ............... LPS
  Process Models:
    Rainfall/Runoff ........ YES
    RDII ................... NO
    Snowmelt ............... NO
    Groundwater ............ NO
    Flow Routing ........... YES
    Ponding Allowed ........ NO
    Water Quality .......... YES
  Infiltration Method ...... HORTON
  Flow Routing Method ...... DYNWAVE
  Surcharge Method ......... EXTRAN
  Starting Date ............ 08/28/2015 08:00:00
  Ending Date .............. 08/28/2015 16:00:00
  Antecedent Dry Days ...... 8.0
  Report Time Step ......... 00:01:00
  Wet Time Step ............ 00:01:00
  Dry Time Step ............ 00:01:00
  Routing Time Step ........ 5.00 sec
  Variable Time Step ....... YES
  Maximum Trials ........... 8
  Number of Threads ........ 4
  Head Tolerance ........... 0.001500 m
  
  
  **************************        Volume         Depth
  Runoff Quantity Continuity     hectare-m            mm
  **************************     ---------       -------
  Total Precipitation ......         7.225        15.819
  Evaporation Loss .........         0.000         0.000
  Infiltration Loss ........         1.162         2.543
  Surface Runoff ...........         5.098        11.162
  Final Storage ............         0.967         2.116
  Continuity Error (%) .....        -0.017
  
  
  **************************           COD            SS            TN            TP         NH4-N
  Runoff Quality Continuity             kg            kg            kg            kg            kg
  **************************    ----------    ----------    ----------    ----------    ----------
  Initial Buildup ..........     41378.656     70582.865      1804.177       168.684      1032.807
  Surface Buildup ..........        29.452        60.412         2.494         0.225         1.432
  Wet Deposition ...........         0.000         0.000         0.000         0.000         0.000
  Sweeping Removal .........         0.000         0.000         0.000         0.000         0.000
  Infiltration Loss ........       121.275       234.054         2.315         0.164         1.107
  BMP Removal ..............         0.000         0.000         0.000         0.000         0.000
  Surface Runoff ...........      5076.686      9698.729        97.758         6.748        46.590
  Remaining Buildup ........     36208.131     60706.557      1706.558       161.994       986.524
  Continuity Error (%) .....         0.005         0.006         0.002         0.002         0.002
  
  
  **************************        Volume        Volume
  Flow Routing Continuity        hectare-m      10^6 ltr
  **************************     ---------     ---------
  Dry Weather Inflow .......         0.630         6.296
  Wet Weather Inflow .......         5.097        50.971
  Groundwater Inflow .......         0.000         0.000
  RDII Inflow ..............         0.000         0.000
  External Inflow ..........         0.105         1.045
  External Outflow .........         0.720         7.203
  Flooding Loss ............         4.551        45.506
  Evaporation Loss .........         0.000         0.000
  Exfiltration Loss ........         0.000         0.000
  Initial Stored Volume ....         0.076         0.761
  Final Stored Volume ......         0.636         6.365
  Continuity Error (%) .....        -0.002
  
  
  **************************           COD            SS            TN            TP         NH4-N
  Quality Routing Continuity            kg            kg            kg            kg            kg
  **************************    ----------    ----------    ----------    ----------    ----------
  Dry Weather Inflow .......      1573.993      2518.389       151.103        18.888        94.440
  Wet Weather Inflow .......      5076.465      9698.465        97.752         6.747        46.587
  Groundwater Inflow .......         0.000         0.000         0.000         0.000         0.000
  RDII Inflow ..............         0.000         0.000         0.000         0.000         0.000
  External Inflow ..........       187.321       299.713        17.983         2.248        11.239
  External Outflow .........      1031.569      1850.070        59.430         6.882        35.606
  Flooding Loss ............      5152.535      9500.553       181.103        18.249       101.598
  Exfiltration Loss ........         0.000         0.000         0.000         0.000         0.000
  Mass Reacted .............         0.000         0.000         0.000         0.000         0.000
  Initial Stored Mass ......         0.000         0.000         0.000         0.000         0.000
  Final Stored Mass ........       648.500      1160.174        25.501         2.650        14.552
  Continuity Error (%) .....         0.076         0.046         0.302         0.369         0.335
  
  
  *************************
  Highest Continuity Errors
  *************************
  Node WS02006256 (68.17%)
  Node HS02004842 (11.61%)
  Node YS02001884 (9.65%)
  Node WS02003059 (6.13%)
  Node HS02004817 (2.21%)
  
  
  ***************************
  Time-Step Critical Elements
  ***************************
  Link WS02006280WS02006229 (39.57%)
  Link YS02006556YS02006558 (37.97%)
  Link YS02001661YS02001658 (3.54%)
  Link YS02006558YS02006561 (2.96%)
  Link YS02001745YS02001748 (2.25%)
  
  
  ********************************
  Highest Flow Instability Indexes
  ********************************
  Link WS02006113WS02006111 (40)
  Link YS02006558YS02006561 (24)
  Link YS02006561YS02001783 (22)
  Link YS02006556YS02006558 (21)
  Link YS02001783YS02001784 (16)
  
  
  *************************
  Routing Time Step Summary
  *************************
  Minimum Time Step           :     0.50 sec
  Average Time Step           :     2.68 sec
  Maximum Time Step           :     5.00 sec
  Percent in Steady State     :    -0.00
  Average Iterations per Step :     2.97
  Percent Not Converging      :    10.26
  
  
  ***************************
  Subcatchment Runoff Summary
  ***************************
  
  ------------------------------------------------------------------------------------------------------------------------------
                            Total      Total      Total      Total     Imperv       Perv      Total       Total     Peak  Runoff
                           Precip      Runon       Evap      Infil     Runoff     Runoff     Runoff      Runoff   Runoff   Coeff
  Subcatchment                 mm         mm         mm         mm         mm         mm         mm    10^6 ltr      LPS
  ------------------------------------------------------------------------------------------------------------------------------
  sub0                      15.82       0.00       0.00       0.65      14.67       0.46      15.12        0.01     3.31   0.956
  sub1                      15.82       0.00       0.00       1.14      13.99       0.60      14.59        0.10    23.64   0.923
  sub2                      15.82       0.00       0.00       4.73       9.88       1.12      11.00        0.10    23.47   0.695
  sub3                      15.82       0.00       0.00       4.93       9.84       0.92      10.77        0.24    52.70   0.681
  sub4                      15.82       0.00       0.00       1.26      13.83       0.48      14.31        0.30    62.69   0.905
  sub5                      15.82       0.00       0.00       0.69      14.62       0.41      15.03        0.17    41.30   0.950
  sub7                      15.82       0.00       0.00       0.88      14.33       0.55      14.88        0.05    12.89   0.941
  sub8                      15.82       0.00       0.00       0.89      14.32       0.54      14.86        0.09    23.92   0.939
  sub9                      15.82       0.00       0.00       0.89      14.32       0.53      14.85        0.07    17.92   0.939
  sub10                     15.82       0.00       0.00       0.80      14.47       0.47      14.94        0.16    40.43   0.944
  sub11                     15.82       0.00       0.00       0.78      14.48       0.49      14.97        0.17    44.03   0.946
  sub12                     15.82       0.00       0.00       1.27      13.72       0.79      14.50        0.13    33.91   0.917
  sub14                     15.82       0.00       0.00       0.89      14.32       0.53      14.85        0.14    35.33   0.939
  sub15                     15.82       0.00       0.00       3.49      11.01       1.25      12.26        0.21    51.73   0.775
  sub16                     15.82       0.00       0.00       3.65      10.56       1.57      12.13        0.13    33.21   0.767
  sub17                     15.82       0.00       0.00       3.56      10.71       1.51      12.22        0.10    27.18   0.773
  sub22                     15.82       0.00       0.00       5.21       8.98       1.59      10.56        0.67   164.54   0.668
  sub23                     15.82       0.00       0.00       4.32       9.92       1.54      11.46        0.55   137.40   0.724
  sub60                     15.82       0.00       0.00       1.69      11.96       0.21      12.16        3.69   481.95   0.769
  sub61                     15.82       0.00       0.00       2.40      11.95       0.29      12.25        3.78   559.39   0.774
  sub62                     15.82       0.00       0.00       1.05      13.06       0.22      13.27        4.08   581.34   0.839
  sub63                     15.82       0.00       0.00       4.25      10.41       0.34      10.74        3.25   506.09   0.679
  sub64                     15.82       0.00       0.00       2.16      11.49       0.21      11.70        3.56   460.92   0.740
  sub65                     15.82       0.00       0.00       1.86      11.70       0.20      11.90        3.66   469.51   0.752
  sub66                     15.82       0.00       0.00       4.36       9.80       0.23      10.03        3.08   414.81   0.634
  sub67                     15.82       0.00       0.00       1.00      13.60       0.26      13.87        4.28   686.26   0.877
  sub68                     15.82       0.00       0.00       1.92      12.53       0.30      12.83        3.94   603.56   0.811
  sub69                     15.82       0.00       0.00       1.97      12.83       0.40      13.24        3.09   540.53   0.837
  sub70                     15.82      13.51       0.00       8.28      17.79       1.69      19.48        4.46   603.13   0.664
  sub71                     15.82       0.00       0.00       1.07      12.79       0.20      12.99        3.07   417.95   0.821
  sub72                     15.82       0.00       0.00       1.00      10.67       0.11      10.78        2.20   224.99   0.681
  1                         15.82      18.97       0.00       1.40      20.70       6.40      27.10        6.37   614.57   0.779
  2                         15.82       0.00       0.00       3.09       3.81       2.78       6.59        2.63   335.76   0.416
  
  
  ****************************
  Subcatchment Washoff Summary
  ****************************
  
  ------------------------------------------------------------------------------------------
                                 COD            SS            TN            TP         NH4-N
  Subcatchment                    kg            kg            kg            kg            kg
  ------------------------------------------------------------------------------------------
  sub0                         3.342         6.539         0.058         0.005         0.028
  sub1                        14.445        29.169         0.272         0.019         0.131
  sub2                         9.333        18.450         0.194         0.013         0.090
  sub3                        22.930        44.994         0.469         0.032         0.217
  sub4                        33.459        68.527         0.660         0.041         0.317
  sub5                        32.971        65.544         0.595         0.046         0.289
  sub7                         7.277        14.873         0.138         0.009         0.067
  sub8                        10.857        22.729         0.216         0.013         0.104
  sub9                         9.333        19.260         0.181         0.012         0.087
  sub10                       27.062        54.498         0.501         0.036         0.243
  sub11                       26.178        53.276         0.493         0.034         0.239
  sub12                       22.495        44.902         0.412         0.031         0.199
  sub14                       20.012        40.904         0.381         0.026         0.184
  sub15                       27.054        53.366         0.520         0.038         0.245
  sub16                       17.547        34.544         0.334         0.025         0.158
  sub17                       16.118        31.445         0.299         0.024         0.142
  sub22                       86.358       167.545         1.636         0.124         0.769
  sub23                       49.405        99.074         1.037         0.069         0.479
  sub60                      324.640       621.676         6.408         0.400         3.077
  sub61                      403.811       770.091         7.508         0.521         3.622
  sub62                      414.691       803.518         8.053         0.518         3.874
  sub63                      300.333       564.683         5.954         0.423         2.777
  sub64                      412.475       762.497         7.580         0.557         3.629
  sub65                      421.470       782.145         7.792         0.563         3.736
  sub66                      236.925       441.828         4.798         0.317         2.250
  sub67                      616.781      1183.082        11.126         0.827         5.390
  sub68                      441.387       849.607         8.413         0.576         4.031
  sub69                      395.759       769.131         7.420         0.528         3.559
  sub70                      689.482      1342.738        13.769         0.971         6.492
  sub71                      272.842       533.508         5.550         0.327         2.660
  sub72                      224.846       409.126         4.183         0.289         2.015
  1                          511.608      1001.637        10.376         0.732         4.846
  2                           58.701       105.692         1.622         0.098         0.695
  ------------------------------------------------------------------------------------------
  System                    6161.927     11810.599       118.947         8.246        56.641
  
  
  ******************
  Node Depth Summary
  ******************
  
  ---------------------------------------------------------------------------------
                                 Average  Maximum  Maximum  Time of Max    Reported
                                   Depth    Depth      HGL   Occurrence   Max Depth
  Node                 Type       Meters   Meters   Meters  days hr:min      Meters
  ---------------------------------------------------------------------------------
  WS02001211           JUNCTION     0.22     0.33     5.16     0  02:43        0.33
  WS02001212           JUNCTION     0.04     0.16     5.22     0  02:42        0.16
  WS02001213           JUNCTION     0.34     0.51     5.27     0  02:42        0.51
  WS02003069           JUNCTION     0.20     0.38     4.97     0  02:43        0.38
  WS02003072           JUNCTION     0.26     0.46     4.83     0  02:43        0.46
  WS02003073           JUNCTION     0.14     0.27     4.33     0  02:44        0.27
  WS02003060           JUNCTION     0.18     0.35     5.28     0  02:43        0.35
  WS02003066           JUNCTION     0.15     0.29     5.84     0  02:40        0.29
  WS02003059           JUNCTION     0.42     0.59     5.28     0  02:41        0.59
  WS02003067           JUNCTION     0.41     0.69     6.01     0  02:40        0.69
  WS02004401           JUNCTION     0.48     0.85     6.85     0  02:37        0.85
  WS02004402           JUNCTION     0.52     0.88     6.84     0  02:39        0.88
  WS02004403           JUNCTION     0.54     0.90     6.83     0  02:39        0.90
  WS02004404           JUNCTION     0.61     0.98     6.83     0  02:38        0.98
  WS02004406           JUNCTION     0.62     0.94     6.77     0  02:38        0.94
  WS02004409           JUNCTION     0.29     0.65     6.42     0  02:39        0.65
  WS02004410           JUNCTION     0.32     0.66     6.38     0  02:39        0.66
  WS02004411           JUNCTION     0.34     0.67     6.35     0  02:39        0.67
  WS02004412           JUNCTION     0.36     0.68     6.32     0  02:40        0.68
  WS02004413           JUNCTION     0.50     0.84     6.31     0  02:40        0.84
  WS02004405           JUNCTION     0.61     0.95     6.80     0  02:38        0.95
  WS02006109           JUNCTION     0.54     0.92     7.53     0  02:34        0.92
  WS02006110           JUNCTION     0.55     0.89     7.47     0  02:35        0.89
  WS02006111           JUNCTION     0.13     0.27     6.98     0  02:35        0.27
  WS02006112           JUNCTION     0.63     1.04     6.92     0  02:37        1.04
  WS02006113           JUNCTION     0.20     0.43     7.32     0  02:35        0.43
  WS02006115           JUNCTION     0.38     0.75     6.89     0  02:37        0.75
  WS02006116           JUNCTION     0.46     0.83     6.87     0  02:37        0.83
  WS02006230           JUNCTION     0.43     0.87     7.61     0  02:35        0.87
  WS02006231           JUNCTION     0.13     0.46     7.58     0  02:35        0.46
  WS02006232           JUNCTION     0.20     0.53     7.57     0  02:35        0.53
  WS02006234           JUNCTION     0.09     0.36     7.52     0  02:35        0.36
  WS02006235           JUNCTION     0.03     0.15     7.32     0  02:36        0.15
  WS02006238           JUNCTION     0.06     0.18     7.32     0  02:37        0.18
  WS02006240           JUNCTION     0.04     0.12     7.41     0  02:40        0.12
  WS02006242           JUNCTION     0.07     0.17     7.44     0  02:39        0.17
  WS02006243           JUNCTION     0.03     0.09     7.51     0  02:37        0.09
  WS02006245           JUNCTION     0.04     0.11     7.60     0  02:36        0.11
  WS02006247           JUNCTION     0.05     0.13     7.63     0  02:36        0.13
  WS02006248           JUNCTION     0.03     0.10     7.68     0  02:35        0.10
  WS02006249           JUNCTION     0.05     0.14     7.74     0  02:34        0.14
  WS02006239           JUNCTION     0.04     0.13     7.34     0  02:38        0.13
  WS02006251           JUNCTION     0.04     0.11     7.78     0  02:33        0.11
  WS02006252           JUNCTION     0.00     0.00     8.24     0  00:00        0.00
  WS02006253           JUNCTION     0.16     0.35     7.99     0  02:33        0.35
  WS02006256           JUNCTION     0.22     0.39     7.33     0  02:36        0.39
  WS02004138           JUNCTION     0.10     0.10     7.35     0  00:01        0.10
  WS02004139           JUNCTION     0.11     0.14     5.05     0  02:44        0.14
  WS02004407           JUNCTION     0.13     0.29     6.60     0  02:38        0.29
  WS02006228           JUNCTION     0.52     0.94     7.59     0  02:34        0.94
  WS02006229           JUNCTION     0.48     0.93     7.63     0  02:34        0.93
  WS02006280           JUNCTION     0.10     0.25     8.52     0  02:34        0.25
  WS02006284           JUNCTION     0.42     0.64     9.04     0  02:34        0.64
  WS02006287           JUNCTION     0.15     0.38     9.34     0  02:33        0.38
  WSF200               JUNCTION     0.12     0.28     5.51     0  02:40        0.28
  HS02004901           JUNCTION     0.17     0.36    10.19     0  02:32        0.36
  HS02004881           JUNCTION     0.02     0.05     9.08     0  02:33        0.05
  HS02004876           JUNCTION     0.07     0.16     9.19     0  02:33        0.16
  HS02004870           JUNCTION     0.03     0.09     9.38     0  02:33        0.09
  HS02004862           JUNCTION     0.04     0.11     9.49     0  02:33        0.11
  HS02004856           JUNCTION     0.09     0.15     9.57     0  02:33        0.15
  HS02004852           JUNCTION     0.02     0.07     9.58     0  02:33        0.07
  HS02004848           JUNCTION     0.02     0.07     9.67     0  02:33        0.07
  HS02004842           JUNCTION     0.34     0.40     9.67     0  02:33        0.40
  HS02004837           JUNCTION     0.04     0.09     9.67     0  02:33        0.09
  HS02004830           JUNCTION     0.05     0.10     9.57     0  02:34        0.10
  HS02004824           JUNCTION     0.04     0.12     9.53     0  02:34        0.12
  HS02004817           JUNCTION     0.48     0.69     9.54     0  02:34        0.69
  HS02004807           JUNCTION     0.17     0.36     9.53     0  02:34        0.36
  HS02004802           JUNCTION     0.20     0.39     9.52     0  02:34        0.39
  HS02004799           JUNCTION     0.19     0.45     9.66     0  02:32        0.45
  HS02004792           JUNCTION     0.07     0.21     9.73     0  02:32        0.21
  HS02004788           JUNCTION     0.05     0.15    10.05     0  02:33        0.15
  HS02004785           JUNCTION     0.09     0.24    10.14     0  02:32        0.24
  HS02004777           JUNCTION     0.19     0.38    10.18     0  02:32        0.38
  HS02004770           JUNCTION     0.16     0.36    10.19     0  02:32        0.36
  HS02004480           JUNCTION     0.14     0.37     9.61     0  02:32        0.37
  HS02004479           JUNCTION     0.17     0.41     9.61     0  02:32        0.41
  HS02004478           JUNCTION     0.10     0.27     9.50     0  02:33        0.27
  YS02001745           JUNCTION     0.68     1.00     8.52     0  03:01        1.00
  YS02001748           JUNCTION     1.03     1.43     8.51     0  03:01        1.43
  YS02001751           JUNCTION     1.20     1.61     8.49     0  03:01        1.61
  YS02001754           JUNCTION     1.44     1.87     8.48     0  03:01        1.87
  YS02001762           JUNCTION     1.63     2.07     8.47     0  03:01        2.07
  YS02001765           JUNCTION     1.58     2.01     8.46     0  03:01        2.01
  YS02001767           JUNCTION     1.54     1.97     8.45     0  03:01        1.97
  YS02001770           JUNCTION     1.54     1.95     8.44     0  02:55        1.95
  YS02001774           JUNCTION     1.60     1.99     8.41     0  02:55        1.99
  YS02001779           JUNCTION     1.35     1.68     8.37     0  02:23        1.68
  YS02001882           JUNCTION     0.77     1.64     8.36     0  02:23        1.63
  YS02001884           JUNCTION     0.86     1.74     8.35     0  02:40        1.73
  YS02001759           JUNCTION     1.66     2.11     8.47     0  03:01        2.11
  YS02001887           JUNCTION     0.94     1.81     8.35     0  02:40        1.81
  YS02001890           JUNCTION     0.97     1.81     8.32     0  02:23        1.81
  YS02001898           JUNCTION     0.74     1.57     8.30     0  02:23        1.56
  YS02001901           JUNCTION     0.85     1.68     8.29     0  02:27        1.67
  YS02001904           JUNCTION     0.82     1.64     8.27     0  02:23        1.63
  YS02001907           JUNCTION     1.14     1.96     8.25     0  02:23        1.96
  YS02001910           JUNCTION     0.94     1.80     8.31     0  02:24        1.78
  YS02001915           JUNCTION     0.75     1.63     8.35     0  02:24        1.58
  YS02001918           JUNCTION     0.49     1.34     8.40     0  02:24        1.28
  YS02001619           JUNCTION     1.16     1.49     8.42     0  02:18        1.48
  YS02001629           JUNCTION     1.48     1.85     8.40     0  02:21        1.84
  YS02001641           JUNCTION     1.57     1.94     8.37     0  02:21        1.93
  YS02001644           JUNCTION     1.58     1.92     8.35     0  02:21        1.92
  YS02001652           JUNCTION     1.45     2.00     8.59     0  02:27        1.86
  YS02001655           JUNCTION     1.23     1.87     8.72     0  02:27        1.63
  YS02001920           JUNCTION     0.57     1.43     8.44     0  02:24        1.36
  YS02001923           JUNCTION     0.39     1.20     8.46     0  02:24        1.13
  YS02001926           JUNCTION     0.39     1.07     8.52     0  02:24        0.97
  YS02001929           JUNCTION     0.25     0.77     8.47     0  02:23        0.77
  YS02001658           JUNCTION     0.98     1.78     8.92     0  02:16        1.44
  YS02001661           JUNCTION     0.78     1.73     9.14     0  02:27        1.45
  YS02001664           JUNCTION     0.36     0.56     8.49     0  02:26        0.55
  YS02001622           JUNCTION     1.17     1.51     8.41     0  02:18        1.50
  YS02001633           JUNCTION     1.57     1.96     8.41     0  02:21        1.94
  YS02001649           JUNCTION     1.63     2.05     8.44     0  02:25        2.05
  YS02001757           JUNCTION     1.75     2.21     8.47     0  03:01        2.21
  YS02001895           JUNCTION     0.73     1.57     8.31     0  02:35        1.56
  YS02001625           JUNCTION     1.44     1.78     8.38     0  02:18        1.78
  YS02163301           JUNCTION     1.51     1.89     8.41     0  02:21        1.88
  YS02163601           JUNCTION     1.62     2.00     8.40     0  02:21        1.99
  YS02164001           JUNCTION     1.56     1.93     8.39     0  02:21        1.91
  YS02001647           JUNCTION     1.42     1.80     8.41     0  02:26        1.79
  YSB1154              JUNCTION     0.31     0.56     9.62     0  02:32        0.56
  YSB6556              JUNCTION     0.21     0.45     9.61     0  02:32        0.45
  YSB1174              JUNCTION     0.26     0.51     9.61     0  02:32        0.51
  YSB1171              JUNCTION     0.46     0.71     9.61     0  02:32        0.71
  YS02006553           JUNCTION     1.14     1.97     8.26     0  02:35        1.96
  YS02006561           JUNCTION     0.48     1.10     7.76     0  02:39        1.09
  YS02006556           JUNCTION     1.11     1.93     8.24     0  02:40        1.93
  YS02006558           JUNCTION     1.15     1.98     8.24     0  02:40        1.97
  YS02001783           JUNCTION     0.81     1.49     7.63     0  02:23        1.47
  YS02001784           JUNCTION     0.83     1.43     7.50     0  02:23        1.42
  YS02001786           JUNCTION     0.77     1.28     7.31     0  02:23        1.26
  YS02001788           JUNCTION     0.74     1.14     7.12     0  02:23        1.13
  YS02001790           JUNCTION     0.95     1.30     6.94     0  02:41        1.29
  YS02001791           JUNCTION     1.01     1.28     6.75     0  02:34        1.27
  YS02001793           JUNCTION     1.50     1.80     6.64     0  02:32        1.80
  WSC                  OUTFALL      0.14     0.27     0.94     0  02:45        0.27
  3                    OUTFALL      0.00     0.00     7.16     0  00:00        0.00
  4                    OUTFALL      0.00     0.00     7.67     0  00:00        0.00
  5                    OUTFALL      0.00     0.00     4.91     0  00:00        0.00
  JK-storage           STORAGE      5.40     5.80     6.60     0  01:52        5.80
  CC-storage           STORAGE      1.01     1.48     8.48     0  02:59        1.48
  XR-storage           STORAGE      7.64     7.72     5.72     0  00:51        7.72
  
  
  *******************
  Node Inflow Summary
  *******************
  
  -------------------------------------------------------------------------------------------------
                                  Maximum  Maximum                  Lateral       Total        Flow
                                  Lateral    Total  Time of Max      Inflow      Inflow     Balance
                                   Inflow   Inflow   Occurrence      Volume      Volume       Error
  Node                 Type           LPS      LPS  days hr:min    10^6 ltr    10^6 ltr     Percent
  -------------------------------------------------------------------------------------------------
  WS02001211           JUNCTION      7.35    78.31     0  02:42       0.212       0.436       1.042
  WS02001212           JUNCTION      0.00    71.10     0  02:42           0       0.223       0.008
  WS02001213           JUNCTION      0.00    71.39     0  02:41           0       0.234       3.495
  WS02003069           JUNCTION      0.32   454.68     0  02:43     0.00922        2.98       0.144
  WS02003072           JUNCTION      0.00   454.60     0  02:43           0        2.98       0.245
  WS02003073           JUNCTION      1.82   456.44     0  02:44      0.0524        3.02       0.201
  WS02003060           JUNCTION     16.53   526.36     0  02:41       0.476        3.23       0.124
  WS02003066           JUNCTION      0.00   509.76     0  02:40           0        2.75       0.052
  WS02003059           JUNCTION      0.00    72.47     0  02:39           0        0.26       6.534
  WS02003067           JUNCTION      0.00   509.69     0  02:40           0        2.75       0.156
  WS02004401           JUNCTION      0.00   512.35     0  02:36           0        2.86       0.371
  WS02004402           JUNCTION      0.00   512.13     0  02:37           0        2.85       0.377
  WS02004403           JUNCTION      0.00   512.31     0  02:37           0        2.84       0.366
  WS02004404           JUNCTION      0.16   522.24     0  02:37     0.00467        2.83       0.326
  WS02004406           JUNCTION      0.00   515.95     0  02:38           0        2.81       0.746
  WS02004409           JUNCTION      0.00   512.74     0  02:38           0        2.79       0.105
  WS02004410           JUNCTION      0.00   511.76     0  02:39           0        2.79       0.169
  WS02004411           JUNCTION      0.00   510.93     0  02:39           0        2.78       0.212
  WS02004412           JUNCTION      0.00   510.36     0  02:39           0        2.78       0.281
  WS02004413           JUNCTION      0.00   509.94     0  02:40           0        2.77       0.502
  WS02004405           JUNCTION      0.04   567.29     0  02:41      0.0011        2.82       0.409
  WS02006109           JUNCTION      1.23   488.72     0  02:35      0.0354        2.81       0.371
  WS02006110           JUNCTION      0.00   488.73     0  02:35           0        2.79       0.331
  WS02006111           JUNCTION      0.00   504.67     0  02:35           0        2.78       0.024
  WS02006112           JUNCTION     27.18   516.38     0  02:35       0.105        2.89       0.507
  WS02006113           JUNCTION      0.00   488.87     0  02:35           0        2.79       0.068
  WS02006115           JUNCTION      0.00   514.96     0  02:35           0        2.87       0.303
  WS02006116           JUNCTION      0.00   512.94     0  02:36           0        2.86       0.217
  WS02006230           JUNCTION     10.28   184.74     0  02:34       0.296        0.69       0.484
  WS02006231           JUNCTION      0.00   184.29     0  02:34           0       0.449      -0.055
  WS02006232           JUNCTION      0.00   183.86     0  02:35           0       0.444       0.249
  WS02006234           JUNCTION      0.00   183.72     0  02:35           0        0.44       0.001
  WS02006235           JUNCTION      0.00   200.46     0  02:36           0       0.501      -0.005
  WS02006238           JUNCTION      0.00    18.42     0  02:41           0      0.0613       0.093
  WS02006240           JUNCTION      0.00    18.18     0  02:39           0      0.0612      -0.217
  WS02006242           JUNCTION      0.00    18.32     0  02:37           0      0.0614       0.344
  WS02006243           JUNCTION      0.00    18.36     0  02:36           0      0.0614      -0.002
  WS02006245           JUNCTION      0.00    18.37     0  02:36           0      0.0617       0.497
  WS02006247           JUNCTION      0.00    18.40     0  02:35           0      0.0618       0.103
  WS02006248           JUNCTION      0.00    18.40     0  02:34           0      0.0618       0.026
  WS02006249           JUNCTION      0.00    18.48     0  02:33           0      0.0619       0.116
  WS02006239           JUNCTION      0.00    18.15     0  02:40           0      0.0614       0.158
  WS02006251           JUNCTION      0.08   139.51     0  02:33     0.00222       0.577      -0.004
  WS02006252           JUNCTION      0.00     0.00     0  00:00           0           0       0.000 ltr
  WS02006253           JUNCTION      3.31   139.43     0  02:33      0.0122       0.575       0.035
  WS02006256           JUNCTION      0.00     2.07     0  01:59           0    0.000965     214.171
  WS02004138           JUNCTION      0.00    95.00     0  00:00           0        2.74       0.088
  WS02004139           JUNCTION      0.32   173.52     0  02:44     0.00924        3.17       0.070
  WS02004407           JUNCTION      0.00   512.89     0  02:38           0        2.79       0.049
  WS02006228           JUNCTION      0.00   487.50     0  02:35           0        2.78       0.224
  WS02006229           JUNCTION      0.00   661.76     0  02:34           0        3.17       0.117
  WS02006280           JUNCTION      0.00   661.76     0  02:34           0        2.93       0.003
  WS02006284           JUNCTION      0.10   661.69     0  02:34     0.00275        2.93       0.032
  WS02006287           JUNCTION      0.00   661.54     0  02:34           0        2.93       0.025
  WSF200               JUNCTION      0.00   509.74     0  02:40           0        2.75       0.021
  HS02004901           JUNCTION     33.21    33.21     0  02:30       0.127       0.127       1.405
  HS02004881           JUNCTION     12.89   136.40     0  02:33      0.0501       0.563       0.011
  HS02004876           JUNCTION     23.64   123.95     0  02:33       0.097       0.513       0.104
  HS02004870           JUNCTION     23.92   100.56     0  02:33      0.0949       0.416       0.028
  HS02004862           JUNCTION     23.67    77.30     0  02:33       0.108       0.322       0.054
  HS02004856           JUNCTION     17.92    53.69     0  02:33      0.0714       0.215       0.679
  HS02004852           JUNCTION      0.00    36.22     0  02:33           0       0.143       0.039
  HS02004848           JUNCTION     52.70    52.70     0  02:35       0.242       0.242       0.023
  HS02004842           JUNCTION      0.00    17.49     0  02:44           0       0.112      13.138
  HS02004837           JUNCTION     46.78    62.52     0  02:33       0.348       0.447       0.182
  HS02004830           JUNCTION      0.15    62.64     0  02:33     0.00432       0.437       0.283
  HS02004824           JUNCTION     62.74   125.28     0  02:35         0.3       0.736       0.075
  HS02004817           JUNCTION      0.60   126.41     0  02:36      0.0173       0.752       2.265
  HS02004807           JUNCTION     44.03   168.11     0  02:35       0.174        0.91       0.482
  HS02004802           JUNCTION      0.00   168.62     0  02:35           0       0.908       0.436
  HS02004799           JUNCTION     35.33   421.62     0  02:32       0.141        1.74       0.157
  HS02004792           JUNCTION    164.82   386.81     0  02:32       0.675         1.6       0.027
  HS02004788           JUNCTION     53.40   222.80     0  02:32       0.259       0.928       0.043
  HS02004785           JUNCTION      0.15   169.63     0  02:32     0.00432        0.67       0.074
  HS02004777           JUNCTION      0.03   169.68     0  02:31    0.000864        0.67       0.780
  HS02004770           JUNCTION    137.40   170.16     0  02:31       0.547       0.672       0.464
  HS02004480           JUNCTION      0.00   494.76     0  02:32           0        2.04       0.054
  HS02004479           JUNCTION      0.00    73.31     0  02:32           0       0.305       0.241
  HS02004478           JUNCTION      0.00   661.50     0  02:33           0        2.93       0.010
  YS02001745           JUNCTION    481.95   481.95     0  03:01        3.69        3.69       0.308
  YS02001748           JUNCTION      0.04   481.92     0  03:01      0.0013        3.68       0.630
  YS02001751           JUNCTION      0.01   481.93     0  03:01    0.000317        3.65       0.644
  YS02001754           JUNCTION      0.26   482.28     0  03:01     0.00749        3.64       0.675
  YS02001762           JUNCTION      0.00   381.22     0  02:24           0        2.45       0.864
  YS02001765           JUNCTION      0.00   381.50     0  02:24           0        2.45       0.997
  YS02001767           JUNCTION      0.54   381.56     0  02:24      0.0154        2.48       1.460
  YS02001770           JUNCTION    581.50   887.83     0  03:01        4.08         5.4       0.583
  YS02001774           JUNCTION      0.00   851.17     0  03:04           0        4.21       0.596
  YS02001779           JUNCTION      0.01   851.17     0  03:04    0.000144        4.19       0.358
  YS02001882           JUNCTION      0.00    28.28     0  02:19           0      0.0194       7.859
  YS02001884           JUNCTION      0.00    31.88     0  02:18           0      0.0552      10.675
  YS02001759           JUNCTION    559.43   764.55     0  02:25        3.78        4.88       0.471
  YS02001887           JUNCTION    686.71   686.73     0  02:48        4.29        4.32       0.175
  YS02001890           JUNCTION      0.00   686.74     0  02:47           0        4.28       0.191
  YS02001898           JUNCTION      0.00   517.58     0  02:37           0        3.94       0.052
  YS02001901           JUNCTION      0.00   517.62     0  02:37           0        3.94       0.147
  YS02001904           JUNCTION      0.00   517.51     0  02:41           0        3.93       0.113
  YS02001907           JUNCTION      0.00  1162.23     0  03:00           0        9.26       0.234
  YS02001910           JUNCTION      0.00   645.79     0  03:00           0        5.34       0.206
  YS02001915           JUNCTION    417.97   645.74     0  03:01        3.07        5.38       0.096
  YS02001918           JUNCTION      0.00   300.16     0  02:25           0        2.34       0.048
  YS02001619           JUNCTION    414.81   414.81     0  03:01        3.08        3.08       0.399
  YS02001629           JUNCTION      0.00   219.07     0  02:20           0        1.58       1.858
  YS02001641           JUNCTION      0.00   459.52     0  02:20           0         4.9       0.431
  YS02001644           JUNCTION    460.96  1695.03     0  03:01        3.56        15.3       0.165
  YS02001652           JUNCTION      0.00   507.14     0  02:50           0        3.19       0.733
  YS02001655           JUNCTION      0.15   507.11     0  02:50     0.00443        3.21       0.777
  YS02001920           JUNCTION      2.87   299.65     0  02:25      0.0827        2.32       0.108
  YS02001923           JUNCTION      0.04   269.82     0  02:25     0.00109        2.22       0.047
  YS02001926           JUNCTION      0.05   227.56     0  02:24      0.0015         2.2       0.150
  YS02001929           JUNCTION    224.99   224.99     0  03:01         2.2         2.2       0.035
  YS02001658           JUNCTION      0.00   580.38     0  02:16           0        3.23       0.719
  YS02001661           JUNCTION      0.00   736.96     0  02:26           0        3.25       0.509
  YS02001664           JUNCTION    506.09   506.09     0  02:51        3.25        3.25       0.161
  YS02001622           JUNCTION      0.00   414.81     0  03:01           0        3.06       1.047
  YS02001633           JUNCTION    469.71   469.71     0  03:01        3.66        5.08       0.634
  YS02001649           JUNCTION      0.00  1258.35     0  03:01           0        8.86       0.416
  YS02001757           JUNCTION      0.00  1917.45     0  02:22           0        9.04       1.019
  YS02001895           JUNCTION      0.00   517.50     0  02:36           0        3.94       0.111
  YS02001625           JUNCTION      0.00   497.28     0  03:01           0        3.16       1.237
  YS02163301           JUNCTION      0.00   219.58     0  02:20           0        1.56       1.552
  YS02163601           JUNCTION      0.11   458.36     0  02:20     0.00317        4.92       0.613
  YS02164001           JUNCTION      0.00   458.60     0  02:20           0         4.9       0.409
  YS02001647           JUNCTION      0.00   846.70     0  03:14           0        7.83       0.363
  YSB1154              JUNCTION     41.30    41.30     0  02:31        0.17       0.171       0.855
  YSB6556              JUNCTION      0.00    41.08     0  02:31           0       0.172       0.732
  YSB1174              JUNCTION     33.91    33.91     0  02:29       0.127       0.127       1.021
  YSB1171              JUNCTION      0.00    73.51     0  02:31           0       0.304       2.125
  YS02006553           JUNCTION      0.00   683.64     0  03:39           0        6.94       0.199
  YS02006561           JUNCTION      0.00   970.41     0  02:44           0        10.9      -0.000
  YS02006556           JUNCTION      0.00   683.86     0  03:39           0        6.95       0.120
  YS02006558           JUNCTION    604.44   971.28     0  02:44        3.97        10.9       0.041
  YS02001783           JUNCTION      0.00   970.46     0  02:42           0        10.9       0.059
  YS02001784           JUNCTION      1.06   971.45     0  02:44      0.0305        10.9       0.095
  YS02001786           JUNCTION      0.06   971.54     0  02:44     0.00162        10.9       0.122
  YS02001788           JUNCTION      0.07   971.56     0  02:44     0.00204        10.9       0.123
  YS02001790           JUNCTION      0.15   971.68     0  02:39     0.00446        10.9       0.155
  YS02001791           JUNCTION      0.00   971.90     0  02:43           0        10.8       0.131
  YS02001793           JUNCTION      0.00   971.96     0  02:44           0        10.8       0.144
  WSC                  OUTFALL       0.00   456.40     0  02:45           0        3.02       0.000
  3                    OUTFALL       0.00   200.43     0  02:36           0         0.5       0.000
  4                    OUTFALL       0.00   121.03     0  02:33           0       0.515       0.000
  5                    OUTFALL       0.00   173.50     0  02:44           0        3.17       0.000
  JK-storage           STORAGE       0.00   972.03     0  02:42           0          11       0.179
  CC-storage           STORAGE       0.00  1917.84     0  02:22           0        4.18       1.576
  XR-storage           STORAGE    1136.02  1136.02     0  03:01        14.8        15.4      -0.001
  
  
  **********************
  Node Surcharge Summary
  **********************
  
  Surcharging occurs when water rises above the top of the highest conduit.
  ---------------------------------------------------------------------
                                               Max. Height   Min. Depth
                                   Hours       Above Crown    Below Rim
  Node                 Type      Surcharged         Meters       Meters
  ---------------------------------------------------------------------
  WS02006109           JUNCTION        0.56          0.095        1.725
  WS02006112           JUNCTION        0.29          0.039        1.641
  WS02006256           JUNCTION        0.85          0.091        1.959
  WS02006228           JUNCTION        0.55          0.111        2.089
  YS02001745           JUNCTION        0.01          0.001        1.349
  YS02001748           JUNCTION        5.67          0.348        0.842
  YS02001751           JUNCTION        5.78          0.615        0.585
  YS02001754           JUNCTION        5.91          0.824        0.326
  YS02001762           JUNCTION        6.06          1.066        0.084
  YS02001765           JUNCTION        6.04          1.011        0.089
  YS02001767           JUNCTION        6.02          0.966        0.064
  YS02001770           JUNCTION        6.00          0.920        0.000
  YS02001774           JUNCTION        6.05          0.993        0.057
  YS02001779           JUNCTION        5.89          0.680        0.000
  YS02001882           JUNCTION        1.64          0.640        0.190
  YS02001884           JUNCTION        1.67          0.678        0.192
  YS02001759           JUNCTION        6.08          1.107        0.103
  YS02001887           JUNCTION        1.74          0.763        0.187
  YS02001890           JUNCTION        1.77          0.760        0.000
  YS02001898           JUNCTION        1.60          0.538        0.202
  YS02001901           JUNCTION        1.71          0.678        0.192
  YS02001904           JUNCTION        1.69          0.638        0.212
  YS02001907           JUNCTION        2.23          0.950        0.000
  YS02001910           JUNCTION        1.82          0.800        0.300
  YS02001915           JUNCTION        1.63          0.627        0.373
  YS02001918           JUNCTION        1.40          0.337        0.473
  YS02001619           JUNCTION        5.80          0.493        0.117
  YS02001629           JUNCTION        5.80          0.470        0.000
  YS02001641           JUNCTION        6.04          0.937        0.163
  YS02001644           JUNCTION        6.04          0.920        0.000
  YS02001652           JUNCTION        5.96          0.968        0.162
  YS02001655           JUNCTION        5.81          0.869        0.331
  YS02001920           JUNCTION        1.43          0.431        0.709
  YS02001926           JUNCTION        0.01          0.072        0.828
  YS02001658           JUNCTION        5.70          0.777        0.523
  YS02001661           JUNCTION        0.43          0.663        0.727
  YS02001622           JUNCTION        5.81          0.508        0.112
  YS02001633           JUNCTION        6.03          0.938        0.122
  YS02001649           JUNCTION        6.06          1.050        0.000
  YS02001757           JUNCTION        6.14          1.208        0.002
  YS02001895           JUNCTION        1.61          0.568        0.182
  YS02001625           JUNCTION        5.98          0.780        0.000
  YS02163301           JUNCTION        6.01          0.891        0.139
  YS02163601           JUNCTION        6.06          0.998        0.082
  YS02164001           JUNCTION        6.03          0.929        0.171
  YS02001647           JUNCTION        5.97          0.802        0.098
  YS02006553           JUNCTION        2.31          0.972        0.218
  YS02006561           JUNCTION        1.52          0.297        0.853
  YS02006556           JUNCTION        2.01          0.893        0.457
  YS02006558           JUNCTION        1.98          0.877        0.523
  YS02001783           JUNCTION        2.18          0.688        0.912
  YS02001784           JUNCTION        2.21          0.632        0.858
  YS02001786           JUNCTION        2.19          0.476        0.954
  YS02001788           JUNCTION        2.17          0.342        1.138
  YS02001790           JUNCTION        6.14          0.499        0.658
  YS02001791           JUNCTION        6.16          0.480        1.440
  YS02001793           JUNCTION        6.20          0.805        1.795
  
  
  *********************
  Node Flooding Summary
  *********************
  
  Flooding refers to all water that overflows a node, whether it ponds or not.
  --------------------------------------------------------------------------
                                                             Total   Maximum
                                 Maximum   Time of Max       Flood    Ponded
                        Hours       Rate    Occurrence      Volume     Depth
  Node                 Flooded       LPS   days hr:min    10^6 ltr    Meters
  --------------------------------------------------------------------------
  YS02001770              0.14     36.64      0  03:01       0.009     0.000
  YS02001779              3.21    851.17      0  03:04       4.169     0.000
  YS02001890              0.78    170.38      0  02:47       0.327     0.000
  YS02001907              1.23    787.50      0  02:57       2.308     0.000
  YS02001629              0.01      1.28      0  02:21       0.000     0.000
  YS02001644              5.64   1695.02      0  03:01      14.304     0.000
  YS02001649              0.46    411.64      0  03:01       0.379     0.000
  YS02001625              1.78    497.27      0  03:01       1.659     0.000
  JK-storage              6.12    972.02      0  02:42      10.652     0.000
  XR-storage              7.14   1040.96      0  03:01      11.697     0.000
  
  
  **********************
  Storage Volume Summary
  **********************
  
  --------------------------------------------------------------------------------------------------
                         Average     Avg  Evap Exfil       Maximum     Max    Time of Max    Maximum
                          Volume    Pcnt  Pcnt  Pcnt        Volume    Pcnt     Occurrence    Outflow
  Storage Unit           1000 m3    Full  Loss  Loss       1000 m3    Full    days hr:min        LPS
  --------------------------------------------------------------------------------------------------
  JK-storage               0.271      93     0     0         0.291     100       0  01:52      88.43
  CC-storage               2.819      18     0     0         4.116      26       0  02:59     111.80
  XR-storage               0.917      99     0     0         0.926     100       0  00:51      95.00
  
  
  ***********************
  Outfall Loading Summary
  ***********************
  
  ---------------------------------------------------------------------------------------------------------------------------------
                         Flow       Avg       Max       Total         Total         Total         Total         Total         Total
                         Freq      Flow      Flow      Volume           COD            SS            TN            TP         NH4-N
  Outfall Node           Pcnt       LPS       LPS    10^6 ltr            kg            kg            kg            kg            kg
  ---------------------------------------------------------------------------------------------------------------------------------
  WSC                   99.99    156.64    456.40       3.017       448.789       825.864        21.325         2.376        12.509
  3                     81.53     40.76    200.43       0.500        64.652       130.811         1.386         0.110         0.690
  4                     99.98     31.18    121.03       0.515        62.604       125.727         1.360         0.102         0.672
  5                     99.99    116.83    173.50       3.171       455.571       767.733        35.365         4.295        21.739
  ---------------------------------------------------------------------------------------------------------------------------------
  System                95.37    345.41    923.26       7.203      1031.615      1850.134        59.436         6.883        35.610
  
  
  ********************
  Link Flow Summary
  ********************
  
  -----------------------------------------------------------------------------
                                 Maximum  Time of Max   Maximum    Max/    Max/
                                  |Flow|   Occurrence   |Veloc|    Full    Full
  Link                 Type          LPS  days hr:min     m/sec    Flow   Depth
  -----------------------------------------------------------------------------
  WS02003066WSF200     CONDUIT    509.74     0  02:40      2.85    0.09    0.22
  WS02006287WS02006284 CONDUIT    661.60     0  02:34      2.37    0.31    0.39
  WS02006284WS02006280 CONDUIT    661.76     0  02:34      2.60    0.28    0.36
  WS02006280WS02006229 CONDUIT    661.76     0  02:34      4.22    0.14    0.25
  WS02006229WS02006228 CONDUIT    487.50     0  02:35      0.97    1.61    1.00
  WS02006256WS02006235 CONDUIT      2.07     0  01:59      0.26    0.02    0.76
  WS02006253WS02006251 CONDUIT    139.43     0  02:33      0.93    0.42    0.41
  WS02006252WS02006251 CONDUIT      0.00     0  00:00      0.00    0.00    0.00
  WS02006251WS02006249 CONDUIT     18.48     0  02:33      0.40    0.05    0.18
  WS02006249WS02006248 CONDUIT     18.40     0  02:34      0.48    0.10    0.16
  WS02006248WS02006247 CONDUIT     18.40     0  02:35      0.48    0.04    0.16
  WS02006247WS02006245 CONDUIT     18.37     0  02:36      0.43    0.15    0.17
  WS02006245WS02006243 CONDUIT     18.36     0  02:36      0.55    0.05    0.14
  WS02006243WS02006242 CONDUIT     18.32     0  02:37      0.43    0.04    0.17
  WS02006242WS02006240 CONDUIT     18.18     0  02:39      0.34    0.07    0.20
  WS02006240WS02006239 CONDUIT     18.15     0  02:40      0.54    0.06    0.14
  WS02006239WS02006238 CONDUIT     18.42     0  02:41      0.38    0.06    0.20
  WS02006238WS02006235 CONDUIT     18.83     0  02:41      0.43    0.04    0.24
  WS02006235WS02006234 CONDUIT    183.70     0  02:36      1.15    1.94    0.43
  WS02006234WS02006232 CONDUIT    183.72     0  02:35      0.70    0.37    0.64
  WS02006232WS02006231 CONDUIT    183.86     0  02:35      0.64    0.39    0.70
  WS02006231WS02006230 CONDUIT    184.29     0  02:34      0.67    2.80    0.68
  WS02006230WS02006229 CONDUIT    174.47     0  02:34      0.45    3.88    1.00
  WS02006228WS02006109 CONDUIT    487.49     0  02:35      0.97    2.13    1.00
  WS02006116WS02004401 CONDUIT    512.35     0  02:36      0.73    0.71    0.84
  WS02006115WS02006116 CONDUIT    512.94     0  02:36      0.88    0.66    0.76
  WS02006113WS02006111 CONDUIT    504.67     0  02:35      2.37    0.60    0.44
  WS02006112WS02006115 CONDUIT    514.96     0  02:35      0.71    0.30    0.87
  WS02006111WS02006112 CONDUIT    490.61     0  02:35      1.38    0.23    0.66
  WS02006110WS02006113 CONDUIT    488.87     0  02:35      1.18    0.44    0.77
  WS02006109WS02006110 CONDUIT    488.73     0  02:35      0.98    0.94    0.98
  WS02004411WS02004412 CONDUIT    510.36     0  02:39      0.90    0.72    0.68
  WS02004401WS02004402 CONDUIT    512.13     0  02:37      0.71    0.61    0.86
  WS02004413WS02003067 CONDUIT    509.69     0  02:40      1.08    0.22    0.58
  WS02004412WS02004413 CONDUIT    509.94     0  02:40      0.86    0.34    0.76
  WS02004410WS02004411 CONDUIT    510.93     0  02:39      0.92    0.70    0.67
  WS02004409WS02004410 CONDUIT    511.76     0  02:39      0.94    0.66    0.66
  WS02004407WS02004409 CONDUIT    512.74     0  02:38      1.43    0.18    0.47
  WS02004406WS02004407 CONDUIT    512.89     0  02:38      1.01    0.23    0.62
  WS02004405WS02004406 CONDUIT    515.95     0  02:38      0.67    1.02    0.95
  WS02004404WS02004405 CONDUIT    567.25     0  02:41      0.74    5.56    0.96
  WS02004403WS02004404 CONDUIT    522.08     0  02:37      0.68    0.38    0.94
  WS02004402WS02004403 CONDUIT    512.31     0  02:37      0.70    0.74    0.89
  WS02004139WS02001211 CONDUIT     78.20     0  02:44      0.72    0.10    0.15
  WS02004138WS02004139 CONDUIT     95.02     0  00:01      2.40    0.02    0.10
  WS02003067WS02003066 CONDUIT    509.76     0  02:40      1.17    0.16    0.41
  WS02001213WS02003059 CONDUIT     71.39     0  02:41      0.17    0.12    0.54
  WS02001212WS02001213 CONDUIT     71.10     0  02:42      0.77    0.11    0.18
  WS02001211WS02001212 CONDUIT     70.96     0  02:42      0.48    0.05    0.24
  WS02003072WS02003073 CONDUIT    454.61     0  02:44      1.34    0.98    0.34
  WS02003069WS02003072 CONDUIT    454.60     0  02:43      1.29    0.22    0.35
  WS02003060WS02003069 CONDUIT    454.36     0  02:43      1.56    0.18    0.30
  WS02003059WS02003060 CONDUIT     72.47     0  02:39      0.56    0.05    0.47
  HS02004901HS02004770 CONDUIT     32.81     0  02:31      0.09    0.12    0.51
  HS02004876HS02004881 CONDUIT    123.96     0  02:33      1.19    1.32    0.15
  HS02004870HS02004876 CONDUIT    100.53     0  02:33      0.81    0.07    0.18
  HS02004842HS02004848 CONDUIT     17.49     0  02:44      0.08    0.01    0.33
  HS02004837HS02004842 CONDUIT     17.87     0  02:44      0.42    0.01    0.35
  HS02004830HS02004837 CONDUIT     62.49     0  02:33      0.66    0.06    0.14
  HS02004824HS02004830 CONDUIT     62.61     0  02:34      0.62    0.08    0.16
  HS02004817HS02004824 CONDUIT    125.81     0  02:36      0.31    0.06    0.58
  HS02004770HS02004777 CONDUIT    169.65     0  02:31      0.46    0.31    0.52
  HS02004799HS02004480 CONDUIT    421.53     0  02:32      1.04    0.53    0.58
  HS02004792HS02004799 CONDUIT    386.74     0  02:32      1.17    0.24    0.47
  HS02004788HS02004792 CONDUIT    222.74     0  02:33      1.24    0.15    0.26
  HS02004785HS02004788 CONDUIT    169.61     0  02:33      0.87    1.28    0.28
  HS02004777HS02004785 CONDUIT    169.48     0  02:32      0.55    0.21    0.44
  HS02004480HS02004478 CONDUIT    494.81     0  02:33      1.52    2.08    0.47
  HS02004479HS02004480 CONDUIT     73.26     0  02:33      0.31    0.07    0.55
  HS02004862HS02004870 CONDUIT     77.30     0  02:34      0.79    0.08    0.14
  HS02004848HS02004852 CONDUIT     36.22     0  02:33      0.52    0.04    0.10
  HS02004856HS02004862 CONDUIT     53.65     0  02:33      0.58    0.05    0.13
  HS02004852HS02004856 CONDUIT     36.26     0  02:34      0.33    0.04    0.16
  HS02004802HS02004478 CONDUIT    169.22     0  02:36      0.52    0.15    0.47
  HS02004478WS02006287 CONDUIT    661.54     0  02:34      2.09    0.19    0.35
  HS02004817HS02004807 CONDUIT    127.26     0  02:37      0.25    0.08    0.75
  HS02004807HS02004802 CONDUIT    168.62     0  02:35      0.46    0.32    0.53
  YS02001759YS02001757 CONDUIT    764.71     0  02:25      0.97    0.54    1.00
  YS02001762YS02001759 CONDUIT    380.83     0  02:24      0.48    0.44    1.00
  YS02001765YS02001762 CONDUIT    381.22     0  02:24      0.49    0.36    1.00
  YS02001770YS02001767 CONDUIT    381.02     0  02:24      0.49    1.51    1.00
  YS02001774YS02001770 CONDUIT    851.17     0  03:04      1.08    0.54    1.00
  YS02001779YS02001774 CONDUIT    851.17     0  03:04      1.08    0.43    1.00
  YS02001649YS02001757 CONDUIT    969.03     0  02:22      1.23    0.59    1.00
  YS02001767YS02001765 CONDUIT    381.50     0  02:24      0.49    0.48    1.00
  YS02006561YS02001783 CONDUIT    970.46     0  02:42      1.93    0.50    1.00
  YS02001783YS02001784 CONDUIT    970.39     0  02:44      1.93    1.34    1.00
  YS02001784YS02001785 CONDUIT    971.49     0  02:44      1.93    2.26    1.00
  YS02001788YS02001790 CONDUIT    971.52     0  02:39      1.93    0.72    1.00
  YS02001790YS02001791 CONDUIT    971.90     0  02:43      2.03    1.06    1.00
  YS02001791YS02001793 CONDUIT    971.96     0  02:44      3.62    0.42    1.00
  YS02001910YS02001907 CONDUIT    645.84     0  03:00      0.82    0.36    1.00
  YS02001786YS02001788 CONDUIT    971.48     0  02:44      1.93    1.87    1.00
  YS02001915YS02001910 CONDUIT    645.79     0  03:00      0.82    0.32    1.00
  YS02001918YS02001915 CONDUIT    300.90     0  02:25      0.47    0.17    1.00
  YS02001923YS02001920 CONDUIT    296.78     0  02:25      0.79    0.13    1.00
  YS02001926YS02001923 CONDUIT    269.78     0  02:25      0.88    0.39    0.99
  YS02001929YS02001926 CONDUIT    227.51     0  02:24      0.94    0.11    0.88
  YS02001920YS02001918 CONDUIT    300.16     0  02:25      0.76    0.29    1.00
  YS02001629YS02163301 CONDUIT    219.58     0  02:20      0.28    0.27    1.00
  YS02001619YS02001622 CONDUIT    414.81     0  03:01      0.62    0.61    1.00
  YS02001622YS02001625 CONDUIT    414.81     0  03:01      0.53    0.22    1.00
  YS02001625YS02001629 CONDUIT    219.07     0  02:20      0.28    0.10    1.00
  YS02163301YS02001633 CONDUIT    220.27     0  02:20      0.28    0.21    1.00
  YS02163601YS02164001 CONDUIT    458.60     0  02:20      0.58    0.41    1.00
  YS02164001YS02001641 CONDUIT    459.52     0  02:20      0.59    0.63    1.00
  YS02001641YS02001644 CONDUIT    459.45     0  02:20      0.58    1.49    1.00
  YS02001647YS02001649 CONDUIT    846.70     0  03:14      1.08    0.45    1.00
  YS02006553YS02006556 CONDUIT    683.86     0  03:39      0.87    0.59    1.00
  YS02006556YS02006558 CONDUIT    684.75     0  03:39      0.87    0.54    1.00
  YSB6556YSB1171       CONDUIT     40.99     0  02:33      0.12    0.04    0.82
  YS02001907YS02006553 CONDUIT    683.64     0  03:39      0.76    0.80    1.00
  YS02006558YS02006561 CONDUIT    970.41     0  02:44      3.43    2.14    1.00
  YS02001633YS02163601 CONDUIT    458.25     0  02:20      0.58    0.48    1.00
  YS02001644YS02001647 CONDUIT    846.70     0  03:12      1.08    0.50    1.00
  YS02001745YS02001748 CONDUIT    481.87     0  03:01      1.50    0.19    1.00
  YS02001748YS02001751 CONDUIT    481.92     0  03:01      1.07    0.24    1.00
  YS02001751YS02001754 CONDUIT    482.02     0  03:01      0.91    0.23    1.00
  YS02001754YS02001757 CONDUIT    482.34     0  03:01      0.61    0.19    1.00
  YS02001882YS02001884 CONDUIT     28.28     0  02:19      0.13    0.03    1.00
  YS02001884YS02001887 CONDUIT     31.88     0  02:18      0.09    0.04    1.00
  YS02001890YS02001895 CONDUIT    517.50     0  02:36      0.66    0.24    1.00
  YS02001895YS02001898 CONDUIT    517.58     0  02:37      0.66    0.90    1.00
  YS02001898YS02001901 CONDUIT    517.62     0  02:37      0.66    0.33    1.00
  YS02001901YS02001904 CONDUIT    517.51     0  02:41      0.66    0.80    1.00
  YS02001904YS02001907 CONDUIT    517.48     0  02:38      0.66    0.18    1.00
  YS02001887YS02001890 CONDUIT    686.74     0  02:47      0.87    1.18    1.00
  YS02001652YS02001649 CONDUIT    507.16     0  02:50      0.65    0.25    1.00
  YS02001655YS02001652 CONDUIT    507.14     0  02:50      0.97    0.25    1.00
  YS02001658YS02001655 CONDUIT    506.96     0  02:50      1.23    0.22    1.00
  YS02001661YS02001658 CONDUIT    580.38     0  02:16      1.59    0.23    1.00
  YS02001664YS02001661 CONDUIT    736.96     0  02:26      1.57    0.23    0.78
  YSB1154YSB6556       CONDUIT     41.08     0  02:31      0.15    0.07    0.72
  YSB1174YSB1171       CONDUIT     33.20     0  02:29      0.10    0.05    0.83
  YSB1171HS02004479    CONDUIT     73.31     0  02:32      0.54    0.05    0.67
  HS02004881HS02006253 CONDUIT    136.39     0  02:33      2.69    0.03    0.07
  YS02001793JiankangQianchi CONDUIT    972.03     0  02:42      1.24    0.08    1.00
  YS02001757CaochengTiaoxuchi CONDUIT   1917.84     0  02:22      2.66    0.84    1.00
  WSF200WS02003060     CONDUIT    509.83     0  02:41      2.18    0.11    0.26
  1                    CONDUIT    456.40     0  02:45      2.67    0.16    0.27
  CC-Pump-1            PUMP         0.00     0  00:00              0.00
  CC-Pump-2            PUMP         0.00     0  00:00              0.00
  JK-Pump-1            PUMP         0.00     0  00:00              0.00
  JK-Pump-2            PUMP         0.00     0  00:00              0.00
  XR-Pump-1            PUMP         0.00     0  00:00              0.00
  XR-Pump-2            PUMP         0.00     0  00:00              0.00
  XR-Pump-3            PUMP        95.00     0  00:00              1.00
  XR-Pump-4            PUMP         0.00     0  00:00              0.00
  3                    WEIR       121.03     0  02:33                      0.11
  5                    WEIR       200.43     0  02:36                      0.15
  6                    WEIR       173.50     0  02:44                      0.14
  
  
  ***************************
  Flow Classification Summary
  ***************************
  
  -------------------------------------------------------------------------------------
                      Adjusted    ---------- Fraction of Time in Flow Class ---------- 
                       /Actual         Up    Down  Sub   Sup   Up    Down  Norm  Inlet 
  Conduit               Length    Dry  Dry   Dry   Crit  Crit  Crit  Crit  Ltd   Ctrl  
  -------------------------------------------------------------------------------------
  WS02003066WSF200        1.00   0.16  0.00  0.00  0.00  0.84  0.00  0.00  0.76  0.00
  WS02006287WS02006284    1.00   0.06  0.03  0.00  0.39  0.52  0.00  0.00  0.64  0.00
  WS02006284WS02006280    1.00   0.07  0.00  0.00  0.00  0.00  0.00  0.93  0.00  0.00
  WS02006280WS02006229    1.00   0.07  0.00  0.00  0.00  0.00  0.00  0.93  0.00  0.00
  WS02006229WS02006228    1.00   0.00  0.00  0.00  0.99  0.00  0.00  0.01  0.00  0.00
  WS02006256WS02006235    1.00   0.14  0.00  0.00  0.85  0.01  0.00  0.00  0.03  0.00
  WS02006253WS02006251    1.00   0.03  0.03  0.00  0.00  0.00  0.94  0.00  0.00  0.00
  WS02006252WS02006251    1.00   1.00  0.00  0.00  0.00  0.00  0.00  0.00  0.00  0.00
  WS02006251WS02006249    1.00   0.00  0.00  0.00  1.00  0.00  0.00  0.00  0.98  0.00
  WS02006249WS02006248    1.00   0.00  0.08  0.00  0.00  0.00  0.92  0.00  0.00  0.00
  WS02006248WS02006247    1.00   0.08  0.00  0.00  0.81  0.00  0.00  0.10  0.35  0.00
  WS02006247WS02006245    1.00   0.08  0.00  0.00  0.72  0.00  0.00  0.20  0.00  0.00
  WS02006245WS02006243    1.00   0.09  0.00  0.00  0.42  0.00  0.00  0.50  0.00  0.00
  WS02006243WS02006242    1.00   0.09  0.00  0.00  0.85  0.00  0.00  0.06  0.78  0.00
  WS02006242WS02006240    1.00   0.10  0.04  0.00  0.76  0.00  0.10  0.00  0.00  0.00
  WS02006240WS02006239    1.00   0.14  0.00  0.00  0.07  0.00  0.00  0.79  0.00  0.00
  WS02006239WS02006238    1.00   0.14  0.00  0.00  0.84  0.00  0.00  0.02  0.12  0.00
  WS02006238WS02006235    1.00   0.14  0.00  0.00  0.86  0.00  0.00  0.00  0.01  0.00
  WS02006235WS02006234    1.00   0.59  0.00  0.00  0.00  0.00  0.00  0.41  0.00  0.00
  WS02006234WS02006232    1.00   0.12  0.28  0.00  0.61  0.00  0.00  0.00  0.52  0.00
  WS02006232WS02006231    1.00   0.12  0.00  0.00  0.83  0.00  0.06  0.00  0.01  0.00
  WS02006231WS02006230    1.00   0.11  0.00  0.00  0.44  0.00  0.46  0.00  0.00  0.00
  WS02006230WS02006229    1.00   0.00  0.00  0.00  0.98  0.00  0.00  0.02  0.00  0.00
  WS02006228WS02006109    1.00   0.00  0.00  0.00  1.00  0.00  0.00  0.00  0.00  0.00
  WS02006116WS02004401    1.00   0.06  0.00  0.00  0.94  0.00  0.00  0.00  0.00  0.00
  WS02006115WS02006116    1.00   0.06  0.00  0.00  0.89  0.00  0.00  0.05  0.00  0.00
  WS02006113WS02006111    1.00   0.03  0.00  0.00  0.02  0.95  0.00  0.00  0.09  0.00
  WS02006112WS02006115    1.00   0.04  0.02  0.00  0.94  0.00  0.00  0.00  0.00  0.00
  WS02006111WS02006112    1.00   0.04  0.00  0.00  0.96  0.00  0.00  0.00  0.92  0.00
  WS02006110WS02006113    1.00   0.01  0.03  0.00  0.97  0.00  0.00  0.00  0.00  0.00
  WS02006109WS02006110    1.00   0.00  0.01  0.00  0.99  0.00  0.01  0.00  0.00  0.00
  WS02004411WS02004412    1.00   0.13  0.00  0.00  0.87  0.00  0.00  0.00  0.00  0.00
  WS02004401WS02004402    1.00   0.06  0.00  0.00  0.94  0.00  0.00  0.00  0.04  0.00
  WS02004413WS02003067    1.00   0.13  0.02  0.00  0.00  0.00  0.85  0.00  0.00  0.00
  WS02004412WS02004413    1.00   0.13  0.00  0.00  0.87  0.00  0.00  0.00  0.00  0.00
  WS02004410WS02004411    1.00   0.12  0.00  0.00  0.88  0.00  0.00  0.00  0.00  0.00
  WS02004409WS02004410    1.00   0.12  0.00  0.00  0.88  0.00  0.00  0.00  0.00  0.00
  WS02004407WS02004409    1.00   0.12  0.00  0.00  0.86  0.01  0.00  0.00  0.80  0.00
  WS02004406WS02004407    1.00   0.00  0.12  0.00  0.88  0.00  0.00  0.00  0.00  0.00
  WS02004405WS02004406    1.00   0.00  0.00  0.00  1.00  0.00  0.00  0.00  0.04  0.00
  WS02004404WS02004405    1.00   0.00  0.00  0.00  1.00  0.00  0.00  0.00  0.01  0.00
  WS02004403WS02004404    1.00   0.00  0.06  0.00  0.94  0.00  0.00  0.00  0.04  0.00
  WS02004402WS02004403    1.00   0.06  0.00  0.00  0.94  0.00  0.00  0.00  0.00  0.00
  WS02004139WS02001211    1.00   0.00  0.00  0.00  1.00  0.00  0.00  0.00  0.00  0.00
  WS02004138WS02004139    1.00   0.00  0.00  0.00  0.00  0.00  0.00  1.00  0.00  0.00
  WS02003067WS02003066    1.00   0.15  0.01  0.00  0.84  0.00  0.00  0.00  0.00  0.00
  WS02001213WS02003059    1.00   0.00  0.00  0.00  1.00  0.00  0.00  0.00  0.00  0.00
  WS02001212WS02001213    1.00   0.33  0.22  0.00  0.44  0.00  0.00  0.00  0.51  0.00
  WS02001211WS02001212    1.00   0.00  0.33  0.00  0.67  0.00  0.00  0.00  0.77  0.00
  WS02003072WS02003073    1.00   0.00  0.00  0.00  0.00  0.00  0.00  1.00  0.00  0.00
  WS02003069WS02003072    1.00   0.00  0.00  0.00  1.00  0.00  0.00  0.00  0.91  0.00
  WS02003060WS02003069    1.00   0.00  0.00  0.00  0.98  0.02  0.00  0.00  0.81  0.00
  WS02003059WS02003060    1.00   0.00  0.00  0.00  1.00  0.00  0.00  0.00  0.08  0.00
  HS02004901HS02004770    1.00   0.07  0.00  0.00  0.93  0.00  0.00  0.00  0.00  0.00
  HS02004876HS02004881    1.00   0.01  0.00  0.00  0.73  0.26  0.00  0.00  0.00  0.00
  HS02004870HS02004876    1.00   0.00  0.00  0.00  0.99  0.00  0.00  0.00  0.95  0.00
  HS02004842HS02004848    1.00   0.00  0.07  0.00  0.93  0.00  0.00  0.00  0.56  0.00
  HS02004837HS02004842    1.00   0.00  0.00  0.00  1.00  0.00  0.00  0.00  0.11  0.00
  HS02004830HS02004837    1.00   0.00  0.00  0.00  1.00  0.00  0.00  0.00  0.99  0.00
  HS02004824HS02004830    1.00   0.00  0.00  0.00  1.00  0.00  0.00  0.00  0.04  0.00
  HS02004817HS02004824    1.00   0.00  0.00  0.00  1.00  0.00  0.00  0.00  0.93  0.00
  HS02004770HS02004777    1.00   0.00  0.07  0.00  0.93  0.00  0.00  0.00  0.02  0.00
  HS02004799HS02004480    1.00   0.00  0.02  0.00  0.92  0.00  0.06  0.00  0.00  0.00
  HS02004792HS02004799    1.00   0.00  0.00  0.00  0.99  0.01  0.00  0.00  0.98  0.00
  HS02004788HS02004792    1.00   0.00  0.00  0.00  1.00  0.00  0.00  0.00  0.98  0.00
  HS02004785HS02004788    1.00   0.00  0.00  0.00  1.00  0.00  0.00  0.00  0.00  0.00
  HS02004777HS02004785    1.00   0.00  0.00  0.00  1.00  0.00  0.00  0.00  0.12  0.00
  HS02004480HS02004478    1.00   0.07  0.00  0.00  0.44  0.00  0.00  0.48  0.00  0.00
  HS02004479HS02004480    1.00   0.02  0.00  0.00  0.98  0.00  0.00  0.00  0.11  0.00
  HS02004862HS02004870    1.00   0.00  0.00  0.00  1.00  0.00  0.00  0.00  0.03  0.00
  HS02004848HS02004852    1.00   0.07  0.00  0.00  0.93  0.00  0.00  0.00  0.71  0.00
  HS02004856HS02004862    1.00   0.00  0.09  0.00  0.91  0.00  0.00  0.00  0.83  0.00
  HS02004852HS02004856    1.00   0.07  0.01  0.00  0.93  0.00  0.00  0.00  0.76  0.00
  HS02004802HS02004478    1.00   0.07  0.00  0.00  0.93  0.00  0.00  0.00  0.02  0.00
  HS02004478WS02006287    1.00   0.08  0.00  0.00  0.52  0.39  0.00  0.00  0.64  0.00
  HS02004817HS02004807    1.00   0.00  0.07  0.00  0.93  0.00  0.00  0.00  0.01  0.00
  HS02004807HS02004802    1.00   0.07  0.00  0.00  0.92  0.00  0.00  0.01  0.00  0.00
  YS02001759YS02001757    1.00   0.00  0.00  0.00  1.00  0.00  0.00  0.00  0.15  0.00
  YS02001762YS02001759    1.00   0.00  0.00  0.00  1.00  0.00  0.00  0.00  0.03  0.00
  YS02001765YS02001762    1.00   0.00  0.00  0.00  1.00  0.00  0.00  0.00  0.13  0.00
  YS02001770YS02001767    1.00   0.00  0.00  0.00  1.00  0.00  0.00  0.00  0.00  0.00
  YS02001774YS02001770    1.00   0.00  0.07  0.00  0.93  0.00  0.00  0.00  0.03  0.00
  YS02001779YS02001774    1.00   0.00  0.00  0.00  1.00  0.00  0.00  0.00  0.18  0.00
  YS02001649YS02001757    1.00   0.00  0.00  0.00  1.00  0.00  0.00  0.00  0.15  0.00
  YS02001767YS02001765    1.00   0.00  0.00  0.00  1.00  0.00  0.00  0.00  0.00  0.00
  YS02006561YS02001783    1.00   0.10  0.00  0.00  0.83  0.07  0.00  0.00  0.54  0.00
  YS02001783YS02001784    1.00   0.00  0.10  0.00  0.90  0.00  0.00  0.00  0.00  0.00
  YS02001784YS02001785    1.00   0.00  0.00  0.00  1.00  0.00  0.00  0.00  0.17  0.00
  YS02001788YS02001790    1.00   0.00  0.00  0.00  0.95  0.05  0.00  0.00  0.19  0.00
  YS02001790YS02001791    1.00   0.00  0.00  0.00  0.85  0.15  0.00  0.00  0.02  0.00
  YS02001791YS02001793    1.00   0.00  0.00  0.00  0.85  0.15  0.00  0.00  0.01  0.00
  YS02001910YS02001907    1.00   0.00  0.00  0.00  0.98  0.00  0.00  0.01  0.12  0.00
  YS02001786YS02001788    1.00   0.00  0.00  0.00  0.95  0.05  0.00  0.00  0.00  0.00
  YS02001915YS02001910    1.00   0.00  0.00  0.00  0.98  0.02  0.00  0.00  0.15  0.00
  YS02001918YS02001915    1.00   0.00  0.00  0.00  0.99  0.01  0.00  0.00  0.52  0.00
  YS02001923YS02001920    1.00   0.00  0.00  0.00  1.00  0.00  0.00  0.00  0.76  0.00
  YS02001926YS02001923    1.00   0.00  0.04  0.00  0.33  0.00  0.63  0.00  0.00  0.00
  YS02001929YS02001926    1.00   0.00  0.07  0.00  0.93  0.00  0.00  0.00  0.68  0.00
  YS02001920YS02001918    1.00   0.00  0.00  0.00  1.00  0.00  0.00  0.00  0.00  0.00
  YS02001629YS02163301    1.00   0.08  0.01  0.00  0.91  0.00  0.00  0.00  0.00  0.00
  YS02001619YS02001622    1.00   0.07  0.00  0.00  0.93  0.00  0.00  0.00  0.00  0.00
  YS02001622YS02001625    1.00   0.07  0.00  0.00  0.93  0.00  0.00  0.00  0.04  0.00
  YS02001625YS02001629    1.00   0.07  0.03  0.00  0.86  0.00  0.04  0.00  0.00  0.00
  YS02163301YS02001633    1.00   0.00  0.08  0.00  0.92  0.00  0.00  0.00  0.00  0.00
  YS02163601YS02164001    1.00   0.00  0.04  0.00  0.96  0.00  0.00  0.00  0.00  0.00
  YS02164001YS02001641    1.00   0.00  0.04  0.00  0.96  0.00  0.00  0.00  0.05  0.00
  YS02001641YS02001644    1.00   0.00  0.00  0.00  1.00  0.00  0.00  0.00  0.00  0.00
  YS02001647YS02001649    1.00   0.00  0.09  0.00  0.91  0.00  0.00  0.00  0.01  0.00
  YS02006553YS02006556    1.00   0.01  0.00  0.00  0.99  0.00  0.00  0.00  0.03  0.00
  YS02006556YS02006558    1.00   0.00  0.00  0.00  1.00  0.00  0.00  0.00  0.00  0.00
  YSB6556YSB1171          1.00   0.02  0.05  0.00  0.93  0.00  0.00  0.00  0.00  0.00
  YS02001907YS02006553    1.00   0.00  0.01  0.00  0.99  0.00  0.00  0.00  0.00  0.00
  YS02006558YS02006561    1.00   0.10  0.00  0.00  0.37  0.53  0.00  0.00  0.48  0.00
  YS02001633YS02163601    1.00   0.00  0.00  0.00  1.00  0.00  0.00  0.00  0.15  0.00
  YS02001644YS02001647    1.00   0.00  0.09  0.00  0.91  0.00  0.00  0.00  0.00  0.00
  YS02001745YS02001748    1.00   0.00  0.00  0.00  0.82  0.01  0.00  0.17  0.03  0.00
  YS02001748YS02001751    1.00   0.00  0.00  0.00  0.93  0.07  0.00  0.00  0.14  0.00
  YS02001751YS02001754    1.00   0.00  0.00  0.00  0.89  0.00  0.00  0.11  0.02  0.00
  YS02001754YS02001757    1.00   0.00  0.00  0.00  1.00  0.00  0.00  0.00  0.17  0.00
  YS02001882YS02001884    1.00   0.08  0.00  0.00  0.92  0.00  0.00  0.00  0.00  0.00
  YS02001884YS02001887    1.00   0.03  0.03  0.00  0.94  0.00  0.00  0.00  0.00  0.00
  YS02001890YS02001895    1.00   0.00  0.08  0.00  0.92  0.00  0.00  0.00  0.00  0.00
  YS02001895YS02001898    1.00   0.08  0.00  0.00  0.89  0.00  0.02  0.00  0.00  0.00
  YS02001898YS02001901    1.00   0.09  0.00  0.00  0.91  0.00  0.00  0.00  0.01  0.00
  YS02001901YS02001904    1.00   0.09  0.00  0.00  0.91  0.00  0.00  0.00  0.00  0.00
  YS02001904YS02001907    1.00   0.00  0.09  0.00  0.91  0.00  0.00  0.00  0.00  0.00
  YS02001887YS02001890    1.00   0.00  0.00  0.00  0.98  0.00  0.02  0.00  0.00  0.00
  YS02001652YS02001649    1.00   0.00  0.00  0.00  0.99  0.01  0.00  0.00  0.16  0.00
  YS02001655YS02001652    1.00   0.00  0.00  0.00  0.89  0.00  0.00  0.11  0.02  0.00
  YS02001658YS02001655    1.00   0.00  0.08  0.00  0.86  0.06  0.00  0.00  0.08  0.00
  YS02001661YS02001658    1.00   0.07  0.00  0.00  0.82  0.11  0.00  0.00  0.03  0.00
  YS02001664YS02001661    1.00   0.07  0.00  0.00  0.84  0.09  0.00  0.00  0.16  0.00
  YSB1154YSB6556          1.00   0.07  0.00  0.00  0.93  0.00  0.00  0.00  0.01  0.00
  YSB1174YSB1171          1.00   0.03  0.02  0.00  0.95  0.00  0.00  0.00  0.00  0.00
  YSB1171HS02004479       1.00   0.02  0.00  0.00  0.97  0.00  0.00  0.01  0.10  0.00
  HS02004881HS02006253    1.00   0.03  0.00  0.00  0.00  0.00  0.00  0.97  0.00  0.00
  YS02001793JiankangQianchi    1.00   0.00  0.00  0.00  1.00  0.00  0.00  0.00  0.21  0.00
  YS02001757CaochengTiaoxuchi    1.00   0.00  0.14  0.00  0.86  0.00  0.00  0.00  0.00  0.00
  WSF200WS02003060        1.00   0.00  0.16  0.00  0.26  0.58  0.00  0.00  0.58  0.00
  1                       1.00   0.00  0.00  0.00  0.00  1.00  0.00  0.00  0.46  0.00
  
  
  *************************
  Conduit Surcharge Summary
  *************************
  
  ----------------------------------------------------------------------------
                                                           Hours        Hours 
                         --------- Hours Full --------   Above Full   Capacity
  Conduit                Both Ends  Upstream  Dnstream   Normal Flow   Limited
  ----------------------------------------------------------------------------
  WS02006229WS02006228        0.55      0.58      0.55      0.96         0.55
  WS02006256WS02006235        0.01      0.01      0.85      0.01         0.01
  WS02006235WS02006234        0.01      0.01      0.01      0.60         0.01
  WS02006231WS02006230        0.01      0.01      0.01      0.79         0.01
  WS02006230WS02006229        0.76      0.76      0.76      0.85         0.01
  WS02006228WS02006109        0.56      0.69      0.56      1.33         0.56
  WS02006112WS02006115        0.01      0.01      0.29      0.01         0.01
  WS02006111WS02006112        0.01      0.01      1.10      0.01         0.01
  WS02006110WS02006113        0.01      0.01      0.63      0.01         0.01
  WS02006109WS02006110        0.01      0.01      0.69      0.01         0.01
  WS02004405WS02004406        0.01      0.01      0.01      0.09         0.01
  WS02004404WS02004405        0.01      0.01      0.01      2.01         0.01
  HS02004876HS02004881        0.01      0.01      0.01      0.51         0.01
  HS02004785HS02004788        0.01      0.01      0.01      0.44         0.01
  HS02004480HS02004478        0.01      0.01      0.01      0.97         0.01
  YS02001759YS02001757        6.08      6.08      6.14      0.01         0.01
  YS02001762YS02001759        6.06      6.06      6.08      0.01         0.01
  YS02001765YS02001762        6.04      6.04      6.06      0.01         0.01
  YS02001770YS02001767        6.02      6.02      6.02      0.95         0.31
  YS02001774YS02001770        6.00      6.00      6.05      0.01         0.01
  YS02001779YS02001774        5.89      5.89      6.05      0.01         0.01
  YS02001649YS02001757        6.06      6.06      6.14      0.01         0.01
  YS02001767YS02001765        6.02      6.02      6.04      0.01         0.01
  YS02006561YS02001783        1.52      1.52      2.18      0.01         0.01
  YS02001783YS02001784        2.18      2.18      2.21      1.85         1.86
  YS02001784YS02001785        2.19      2.21      2.19      2.76         2.18
  YS02001788YS02001790        2.17      2.17      6.14      0.01         0.01
  YS02001790YS02001791        6.14      6.14      6.16      1.36         1.36
  YS02001791YS02001793        6.16      6.16      6.22      0.01         0.01
  YS02001910YS02001907        1.82      1.82      2.22      0.01         0.01
  YS02001786YS02001788        2.17      2.19      2.17      2.35         2.16
  YS02001915YS02001910        1.63      1.63      1.82      0.01         0.01
  YS02001918YS02001915        1.40      1.40      1.63      0.01         0.01
  YS02001923YS02001920        1.22      1.22      1.43      0.01         0.01
  YS02001926YS02001923        0.01      0.01      0.01      0.01         0.01
  YS02001929YS02001926        0.01      0.01      0.01      0.01         0.01
  YS02001920YS02001918        1.40      1.40      1.43      0.01         0.01
  YS02001629YS02163301        6.00      6.00      6.01      0.01         0.01
  YS02001619YS02001622        5.80      5.80      5.81      0.01         0.01
  YS02001622YS02001625        5.81      5.81      5.98      0.01         0.01
  YS02001625YS02001629        5.80      5.80      5.98      0.01         0.01
  YS02163301YS02001633        6.01      6.01      6.03      0.01         0.01
  YS02163601YS02164001        6.03      6.03      6.06      0.01         0.01
  YS02164001YS02001641        6.03      6.03      6.04      0.01         0.01
  YS02001641YS02001644        6.04      6.04      6.04      2.12         2.02
  YS02001647YS02001649        5.97      5.97      6.06      0.01         0.01
  YS02006553YS02006556        2.01      2.01      2.31      0.01         0.01
  YS02006556YS02006558        2.10      2.10      2.36      0.01         0.01
  YSB6556YSB1171              0.01      0.01      0.17      0.01         0.01
  YS02001907YS02006553        2.79      2.79      3.03      0.01         0.01
  YS02006558YS02006561        1.71      1.98      1.71      2.61         1.71
  YS02001633YS02163601        6.03      6.03      6.06      0.01         0.01
  YS02001644YS02001647        5.97      5.97      6.04      0.01         0.01
  YS02001745YS02001748        0.01      0.01      5.67      0.01         0.01
  YS02001748YS02001751        5.70      5.70      5.78      0.01         0.01
  YS02001751YS02001754        5.78      5.78      5.91      0.01         0.01
  YS02001754YS02001757        5.97      5.97      6.14      0.01         0.01
  YS02001882YS02001884        1.64      1.64      1.67      0.01         0.01
  YS02001884YS02001887        1.72      1.72      1.74      0.01         0.01
  YS02001890YS02001895        1.61      1.61      1.83      0.01         0.01
  YS02001895YS02001898        1.60      1.60      1.61      0.01         0.01
  YS02001898YS02001901        1.62      1.62      1.71      0.01         0.01
  YS02001901YS02001904        1.69      1.69      1.71      0.01         0.01
  YS02001904YS02001907        1.69      1.69      2.32      0.01         0.01
  YS02001887YS02001890        1.77      1.77      1.80      0.60         0.01
  YS02001652YS02001649        5.98      5.98      6.06      0.01         0.01
  YS02001655YS02001652        5.81      5.81      5.96      0.01         0.01
  YS02001658YS02001655        5.69      5.69      5.81      0.01         0.01
  YS02001661YS02001658        0.42      0.42      5.69      0.01         0.01
  YS02001664YS02001661        0.01      0.01      1.13      0.01         0.01
  YS02001793JiankangQianchi        6.20      6.20      7.99      0.01         0.01
  YS02001757CaochengTiaoxuchi        5.51      5.51      6.14      0.01         0.01
  
  
  ***************
  Pumping Summary
  ***************
  
  ---------------------------------------------------------------------------------------------------------
                                                  Min       Avg       Max     Total     Power    % Time Off
                        Percent   Number of      Flow      Flow      Flow    Volume     Usage    Pump Curve
  Pump                 Utilized   Start-Ups       LPS       LPS       LPS  10^6 ltr     Kw-hr    Low   High
  ---------------------------------------------------------------------------------------------------------
  CC-Pump-1                0.00           0      0.00      0.00      0.00     0.000      0.00    0.0    0.0
  CC-Pump-2                0.00           0      0.00      0.00      0.00     0.000      0.00    0.0    0.0
  JK-Pump-1                0.00           0      0.00      0.00      0.00     0.000      0.00    0.0    0.0
  JK-Pump-2                0.00           0      0.00      0.00      0.00     0.000      0.00    0.0    0.0
  XR-Pump-1                0.00           0      0.00      0.00      0.00     0.000      0.00    0.0    0.0
  XR-Pump-2                0.00           0      0.00      0.00      0.00     0.000      0.00    0.0    0.0
  XR-Pump-3              100.00           1      0.00     95.00     95.00     2.736     13.21    0.0    0.0
  XR-Pump-4                0.00           0      0.00      0.00      0.00     0.000      0.00    0.0    0.0
  
  
  ***************************
  Link Pollutant Load Summary
  ***************************
  
  ------------------------------------------------------------------------------------------
                                 COD            SS            TN            TP         NH4-N
  Link                            kg            kg            kg            kg            kg
  ------------------------------------------------------------------------------------------
  WS02003066WSF200           356.070       689.017        10.248         0.963         5.506
  WS02006287WS02006284       405.915       786.680        12.082         1.151         6.544
  WS02006284WS02006280       406.397       787.452        12.129         1.157         6.573
  WS02006280WS02006229       406.369       787.405        12.127         1.157         6.571
  WS02006229WS02006228       349.321       672.261        10.859         1.053         5.932
  WS02006256WS02006235         0.024         0.045         0.001         0.000         0.000
  WS02006253WS02006251        69.975       140.944         1.468         0.106         0.717
  WS02006252WS02006251         0.000         0.000         0.000         0.000         0.000
  WS02006251WS02006249         7.965        16.191         0.162         0.012         0.079
  WS02006249WS02006248         7.927        16.118         0.161         0.011         0.078
  WS02006248WS02006247         7.936        16.138         0.161         0.011         0.078
  WS02006247WS02006245         7.930        16.127         0.161         0.011         0.078
  WS02006245WS02006243         7.900        16.072         0.160         0.011         0.077
  WS02006243WS02006242         7.916        16.110         0.160         0.011         0.077
  WS02006242WS02006240         7.886        16.058         0.158         0.011         0.076
  WS02006240WS02006239         7.900        16.088         0.159         0.011         0.077
  WS02006239WS02006238         7.880        16.042         0.158         0.011         0.076
  WS02006238WS02006235         7.879        16.044         0.158         0.011         0.076
  WS02006235WS02006234        56.765       114.749         1.228         0.099         0.613
  WS02006234WS02006232        56.644       114.493         1.226         0.099         0.612
  WS02006232WS02006231        57.109       115.409         1.236         0.100         0.618
  WS02006231WS02006230        57.510       116.196         1.245         0.101         0.622
  WS02006230WS02006229        59.580       120.257         1.293         0.104         0.646
  WS02006228WS02006109       348.353       670.715        10.765         1.041         5.874
  WS02006116WS02004401       367.176       706.588        11.302         1.094         6.163
  WS02006115WS02006116       368.218       708.247        11.408         1.107         6.230
  WS02006113WS02006111       354.868       681.172        11.386         1.119         6.262
  WS02006112WS02006115       368.966       709.428        11.480         1.116         6.275
  WS02006111WS02006112       354.472       680.563        11.341         1.113         6.233
  WS02006110WS02006113       355.023       681.417        11.401         1.121         6.272
  WS02006109WS02006110       355.955       682.885        11.494         1.132         6.329
  WS02004411WS02004412       358.475       692.660        10.493         0.994         5.659
  WS02004401WS02004402       366.021       704.752        11.193         1.081         6.096
  WS02004413WS02003067       356.832       690.296        10.308         0.970         5.543
  WS02004412WS02004413       357.429       691.000        10.394         0.981         5.598
  WS02004410WS02004411       359.165       693.771        10.557         1.002         5.699
  WS02004409WS02004410       359.633       694.493        10.606         1.008         5.730
  WS02004407WS02004409       360.080       695.241        10.644         1.012         5.753
  WS02004406WS02004407       360.311       695.662        10.659         1.014         5.763
  WS02004405WS02004406       362.418       698.990        10.858         1.039         5.887
  WS02004404WS02004405       363.950       701.465        11.002         1.057         5.976
  WS02004403WS02004404       363.661       700.988        10.971         1.053         5.957
  WS02004402WS02004403       364.732       702.681        11.072         1.066         6.020
  WS02004139WS02001211        83.340       142.400         6.233         0.756         3.830
  WS02004138WS02004139       370.102       621.906        28.931         3.514        17.783
  WS02003067WS02003066       356.057       688.964        10.252         0.963         5.508
  WS02001213WS02003059        35.350        65.781         1.592         0.176         0.929
  WS02001212WS02001213        32.335        61.058         1.291         0.138         0.740
  WS02001211WS02001212        31.699        59.671         1.291         0.139         0.742
  WS02003072WS02003073       437.464       808.337        20.149         2.227        11.770
  WS02003069WS02003072       438.436       809.633        20.280         2.244        11.854
  WS02003060WS02003069       436.848       807.101        20.125         2.225        11.757
  WS02003059WS02003060        40.383        75.893         1.713         0.186         0.991
  HS02004901HS02004770        17.568        34.628         0.333         0.025         0.157
  HS02004876HS02004881        59.422       119.654         1.276         0.093         0.624
  HS02004870HS02004876        45.094        90.688         1.013         0.074         0.498
  HS02004842HS02004848         8.486        16.548         0.175         0.012         0.081
  HS02004837HS02004842        13.100        23.872         0.643         0.071         0.375
  HS02004830HS02004837        79.149       140.752         4.887         0.575         2.957
  HS02004824HS02004830        79.939       142.033         4.961         0.584         3.003
  HS02004817HS02004824       113.708       211.074         5.647         0.628         3.338
  HS02004770HS02004777        66.862       133.511         1.368         0.094         0.635
  HS02004799HS02004480       214.694       418.358         5.303         0.458         2.708
  HS02004792HS02004799       195.397       378.616         4.986         0.440         2.564
  HS02004788HS02004792       107.126       208.003         3.170         0.293         1.682
  HS02004785HS02004788        68.331       135.859         1.520         0.113         0.731
  HS02004777HS02004785        67.646       134.752         1.458         0.106         0.692
  HS02004480HS02004478       269.148       527.340         6.238         0.526         3.153
  HS02004479HS02004480        58.075       114.776         1.256         0.108         0.644
  HS02004862HS02004870        34.235        67.946         0.798         0.062         0.395
  HS02004848HS02004852        14.239        28.124         0.289         0.020         0.134
  HS02004856HS02004862        23.493        47.247         0.467         0.031         0.220
  HS02004852HS02004856        14.245        28.132         0.289         0.020         0.134
  HS02004802HS02004478       137.512       260.539         5.903         0.633         3.428
  HS02004478WS02006287       406.100       786.980        12.099         1.154         6.554
  HS02004817HS02004807       112.472       209.092         5.528         0.613         3.263
  HS02004807HS02004802       137.765       260.942         5.937         0.637         3.449
  YS02001759YS02001757       337.984       635.075         6.642         0.467         3.244
  YS02001762YS02001759       239.119       449.491         4.823         0.342         2.368
  YS02001765YS02001762       241.156       454.476         4.876         0.346         2.397
  YS02001770YS02001767       247.445       469.671         4.865         0.336         2.369
  YS02001774YS02001770       479.449       936.618         9.244         0.623         4.475
  YS02001779YS02001774       479.093       935.945         9.325         0.635         4.531
  YS02001649YS02001757       545.003      1012.144        10.977         0.747         5.309
  YS02001767YS02001765       244.050       461.163         4.938         0.351         2.428
  YS02006561YS02001783      1168.563      2195.671        24.292         1.803        12.051
  YS02001783YS02001784      1168.346      2195.398        24.281         1.802        12.045
  YS02001784YS02001785      1175.575      2207.049        24.996         1.891        12.493
  YS02001788YS02001790      1175.199      2206.589        25.029         1.897        12.517
  YS02001790YS02001791      1175.484      2207.116        25.104         1.907        12.565
  YS02001791YS02001793      1174.703      2205.904        25.074         1.904        12.549
  YS02001910YS02001907       518.562       976.220        11.853         0.883         6.005
  YS02001786YS02001788      1175.334      2206.739        25.006         1.893        12.500
  YS02001915YS02001910       518.494       976.065        11.804         0.876         5.972
  YS02001918YS02001915       253.002       456.495         6.407         0.559         3.387
  YS02001923YS02001920       228.871       416.095         4.361         0.309         2.119
  YS02001926YS02001923       226.179       411.394         4.249         0.297         2.054
  YS02001929YS02001926       224.658       408.761         4.180         0.289         2.014
  YS02001920YS02001918       250.099       450.457         6.330         0.553         3.347
  YS02001629YS02163301       104.821       188.168         2.177         0.144         1.021
  YS02001619YS02001622       236.821       441.800         4.792         0.317         2.248
  YS02001622YS02001625       235.697       440.031         4.765         0.315         2.235
  YS02001625YS02001629       102.084       182.131         2.140         0.140         1.002
  YS02163301YS02001633       108.464       195.685         2.233         0.149         1.050
  YS02163601YS02164001       491.502       903.609         9.477         0.682         4.551
  YS02164001YS02001641       491.082       902.920         9.458         0.681         4.541
  YS02001641YS02001644       491.430       903.448         9.458         0.680         4.540
  YS02001647YS02001649       682.809      1270.820        13.763         0.950         6.608
  YS02006553YS02006556       724.503      1341.394        15.573         1.187         7.826
  YS02006556YS02006558       724.817      1341.979        15.549         1.183         7.808
  YSB6556YSB1171              33.708        66.828         0.669         0.055         0.336
  YS02001907YS02006553       724.352      1341.123        15.580         1.188         7.831
  YS02006558YS02006561      1168.427      2195.388        24.289         1.802        12.050
  YS02001633YS02163601       492.128       904.554         9.455         0.678         4.534
  YS02001644YS02001647       688.376      1281.735        13.849         0.956         6.648
  YS02001745YS02001748       324.700       622.016         6.408         0.400         3.077
  YS02001748YS02001751       323.984       620.802         6.415         0.402         3.085
  YS02001751YS02001754       323.082       619.336         6.399         0.402         3.078
  YS02001754YS02001757       323.956       620.683         6.568         0.425         3.188
  YS02001882YS02001884         2.693         4.650         0.054         0.004         0.027
  YS02001884YS02001887         6.710        11.927         0.131         0.010         0.065
  YS02001890YS02001895       554.485      1057.361        10.235         0.773         4.994
  YS02001895YS02001898       554.467      1057.424        10.231         0.773         4.992
  YS02001898YS02001901       554.393      1057.302        10.229         0.772         4.991
  YS02001901YS02001904       554.423      1057.425        10.239         0.774         4.997
  YS02001904YS02001907       554.852      1058.128        10.296         0.781         5.034
  YS02001887YS02001890       619.281      1187.149        11.420         0.865         5.576
  YS02001652YS02001649       298.746       562.647         5.981         0.431         2.806
  YS02001655YS02001652       299.668       564.092         6.005         0.433         2.818
  YS02001658YS02001655       299.511       563.816         5.926         0.422         2.764
  YS02001661YS02001658       300.899       566.162         5.957         0.424         2.779
  YS02001664YS02001661       300.837       565.790         5.960         0.424         2.780
  YSB1154YSB6556              33.300        66.191         0.621         0.049         0.305
  YSB1174YSB1171              22.855        45.533         0.452         0.036         0.225
  YSB1171HS02004479           58.033       114.711         1.259         0.109         0.647
  HS02004881HS02006253        66.672       134.475         1.412         0.102         0.690
  YS02001793JiankangQianchi      1173.128      2203.433        25.008         1.898        12.511
  YS02001757CaochengTiaoxuchi       454.131       857.951         8.620         0.591         4.133
  WSF200WS02003060           355.835       688.572        10.236         0.962         5.499
  1                          448.789       825.864        21.325         2.376        12.509
  CC-Pump-1                    0.000         0.000         0.000         0.000         0.000
  CC-Pump-2                    0.000         0.000         0.000         0.000         0.000
  JK-Pump-1                    0.000         0.000         0.000         0.000         0.000
  JK-Pump-2                    0.000         0.000         0.000         0.000         0.000
  XR-Pump-1                    0.000         0.000         0.000         0.000         0.000
  XR-Pump-2                    0.000         0.000         0.000         0.000         0.000
  XR-Pump-3                  370.606       622.739        28.973         3.519        17.809
  XR-Pump-4                    0.000         0.000         0.000         0.000         0.000
  3                           62.604       125.727         1.360         0.102         0.672
  5                           64.652       130.811         1.386         0.110         0.690
  6                          455.571       767.733        35.365         4.295        21.739
  

  Analysis begun on:  Thu Jul  8 15:12:33 2021
  Analysis ended on:  Thu Jul  8 15:12:35 2021
  Total elapsed time: 00:00:02