
  EPA STORM WATER MANAGEMENT MODEL - VERSION 5.1 (Build 5.3.0.dev0)
  --------------------------------------------------------------

  WARNING 04: minimum elevation drop used for Conduit WS02004404WS02004405
  WARNING 03: negative offset ignored for Link YS02001904YS02001907
  
  *********************************************************
  NOTE: The summary statistics displayed in this report are
  based on results found at every computational time step,  
  not just on results from each reporting time step.
  *********************************************************
  
  ****************
  Analysis Options
  ****************
  Flow Units ............... LPS
  Process Models:
    Rainfall/Runoff ........ YES
    RDII ................... NO
    Snowmelt ............... NO
    Groundwater ............ NO
    Flow Routing ........... YES
    Ponding Allowed ........ NO
    Water Quality .......... YES
  Infiltration Method ...... HORTON
  Flow Routing Method ...... DYNWAVE
  Surcharge Method ......... EXTRAN
  Starting Date ............ 08/28/2015 08:00:00
  Ending Date .............. 08/28/2015 16:00:00
  Antecedent Dry Days ...... 8.0
  Report Time Step ......... 00:01:00
  Wet Time Step ............ 00:01:00
  Dry Time Step ............ 00:01:00
  Routing Time Step ........ 5.00 sec
  Variable Time Step ....... YES
  Maximum Trials ........... 8
  Number of Threads ........ 4
  Head Tolerance ........... 0.001500 m
  
  
  **************************        Volume         Depth
  Runoff Quantity Continuity     hectare-m            mm
  **************************     ---------       -------
  Total Precipitation ......         6.807        14.903
  Evaporation Loss .........         0.000         0.000
  Infiltration Loss ........         1.119         2.450
  Surface Runoff ...........         4.789        10.485
  Final Storage ............         0.900         1.970
  Continuity Error (%) .....        -0.016
  
  
  **************************           COD            SS            TN            TP         NH4-N
  Runoff Quality Continuity             kg            kg            kg            kg            kg
  **************************    ----------    ----------    ----------    ----------    ----------
  Initial Buildup ..........     41378.656     70582.865      1804.177       168.684      1032.807
  Surface Buildup ..........        28.178        57.078         2.435         0.220         1.400
  Wet Deposition ...........         0.000         0.000         0.000         0.000         0.000
  Sweeping Removal .........         0.000         0.000         0.000         0.000         0.000
  Infiltration Loss ........       113.297       216.848         2.161         0.153         1.032
  BMP Removal ..............         0.000         0.000         0.000         0.000         0.000
  Surface Runoff ...........      4563.682      8626.863        88.076         6.045        41.925
  Remaining Buildup ........     36728.222     61793.113      1716.342       162.704       991.235
  Continuity Error (%) .....         0.004         0.004         0.002         0.001         0.001
  
  
  **************************        Volume        Volume
  Flow Routing Continuity        hectare-m      10^6 ltr
  **************************     ---------     ---------
  Dry Weather Inflow .......         0.630         6.296
  Wet Weather Inflow .......         4.788        47.882
  Groundwater Inflow .......         0.000         0.000
  RDII Inflow ..............         0.000         0.000
  External Inflow ..........         0.105         1.045
  External Outflow .........         3.076        30.763
  Flooding Loss ............         2.441        24.409
  Evaporation Loss .........         0.000         0.000
  Exfiltration Loss ........         0.000         0.000
  Initial Stored Volume ....         0.076         0.761
  Final Stored Volume ......         0.469         4.695
  Continuity Error (%) .....        -6.936
  
  
  **************************           COD            SS            TN            TP         NH4-N
  Quality Routing Continuity            kg            kg            kg            kg            kg
  **************************    ----------    ----------    ----------    ----------    ----------
  Dry Weather Inflow .......      1573.993      2518.389       151.103        18.888        94.440
  Wet Weather Inflow .......      4563.305      8626.308        88.066         6.044        41.920
  Groundwater Inflow .......         0.000         0.000         0.000         0.000         0.000
  RDII Inflow ..............         0.000         0.000         0.000         0.000         0.000
  External Inflow ..........       187.321       299.713        17.983         2.248        11.239
  External Outflow .........      3047.193      5453.040       152.043        16.994        89.660
  Flooding Loss ............      2394.868      4500.432        63.543         5.689        33.691
  Exfiltration Loss ........         0.000         0.000         0.000         0.000         0.000
  Mass Reacted .............         0.000         0.000         0.000         0.000         0.000
  Initial Stored Mass ......         0.000         0.000         0.000         0.000         0.000
  Final Stored Mass ........       386.475       654.961        18.995         2.075        11.123
  Continuity Error (%) .....         7.844         7.305         8.778         8.915         8.893
  
  
  *************************
  Highest Continuity Errors
  *************************
  Node JK-storage (-29.96%)
  Node HS02004842 (12.18%)
  Node YS02001884 (9.38%)
  Node WS02003059 (5.37%)
  Node HS02004817 (2.32%)
  
  
  ***************************
  Time-Step Critical Elements
  ***************************
  Link YS02001793JiankangQianchi (54.17%)
  Link WS02006280WS02006229 (25.56%)
  Link YS02006556YS02006558 (4.86%)
  Link YS02006558YS02006561 (1.51%)
  Link WS02006252WS02006251 (1.51%)
  
  
  ********************************
  Highest Flow Instability Indexes
  ********************************
  Link WS02006252WS02006251 (63)
  Link YS02163601YS02164001 (56)
  Link YS02001619YS02001622 (56)
  Link YS02001629YS02163301 (52)
  Link YS02163301YS02001633 (52)
  
  
  *************************
  Routing Time Step Summary
  *************************
  Minimum Time Step           :     0.50 sec
  Average Time Step           :     2.08 sec
  Maximum Time Step           :     5.00 sec
  Percent in Steady State     :    -0.00
  Average Iterations per Step :     5.39
  Percent Not Converging      :    38.03
  
  
  ***************************
  Subcatchment Runoff Summary
  ***************************
  
  ------------------------------------------------------------------------------------------------------------------------------
                            Total      Total      Total      Total     Imperv       Perv      Total       Total     Peak  Runoff
                           Precip      Runon       Evap      Infil     Runoff     Runoff     Runoff      Runoff   Runoff   Coeff
  Subcatchment                 mm         mm         mm         mm         mm         mm         mm    10^6 ltr      LPS
  ------------------------------------------------------------------------------------------------------------------------------
  sub0                      14.90       0.00       0.00       0.68      13.82       0.36      14.18        0.01     3.07   0.951
  sub1                      14.90       0.00       0.00       1.14      13.18       0.50      13.68        0.09    21.19   0.918
  sub2                      14.90       0.00       0.00       4.57       9.31       0.94      10.25        0.10    20.29   0.688
  sub3                      14.90       0.00       0.00       4.74       9.27       0.78      10.05        0.23    44.96   0.674
  sub4                      14.90       0.00       0.00       1.24      13.03       0.40      13.43        0.28    53.12   0.901
  sub5                      14.90       0.00       0.00       0.71      13.77       0.34      14.11        0.16    37.33   0.947
  sub7                      14.90       0.00       0.00       0.90      13.50       0.44      13.95        0.05    11.78   0.936
  sub8                      14.90       0.00       0.00       0.91      13.49       0.44      13.93        0.09    21.75   0.935
  sub9                      14.90       0.00       0.00       0.91      13.49       0.43      13.92        0.07    16.28   0.934
  sub10                     14.90       0.00       0.00       0.81      13.63       0.38      14.01        0.15    36.60   0.940
  sub11                     14.90       0.00       0.00       0.80      13.64       0.39      14.04        0.16    40.20   0.942
  sub12                     14.90       0.00       0.00       1.30      12.92       0.64      13.56        0.12    30.90   0.910
  sub14                     14.90       0.00       0.00       0.91      13.49       0.43      13.92        0.13    32.05   0.934
  sub15                     14.90       0.00       0.00       3.42      10.37       1.05      11.42        0.20    45.30   0.767
  sub16                     14.90       0.00       0.00       3.60       9.95       1.32      11.26        0.12    28.95   0.756
  sub17                     14.90       0.00       0.00       3.51      10.09       1.26      11.35        0.10    23.75   0.762
  sub22                     14.90       0.00       0.00       5.07       8.45       1.34       9.79        0.62   142.18   0.657
  sub23                     14.90       0.00       0.00       4.22       9.35       1.29      10.64        0.51   119.36   0.714
  sub60                     14.90       0.00       0.00       1.62      11.27       0.17      11.44        3.47   367.87   0.768
  sub61                     14.90       0.00       0.00       2.29      11.27       0.24      11.51        3.55   432.75   0.772
  sub62                     14.90       0.00       0.00       1.01      12.31       0.18      12.49        3.84   448.33   0.838
  sub63                     14.90       0.00       0.00       4.04       9.80       0.28      10.08        3.05   394.14   0.676
  sub64                     14.90       0.00       0.00       2.06      10.83       0.17      11.01        3.35   351.63   0.739
  sub65                     14.90       0.00       0.00       1.77      11.03       0.17      11.20        3.44   358.24   0.751
  sub66                     14.90       0.00       0.00       4.14       9.24       0.19       9.43        2.89   316.84   0.633
  sub67                     14.90       0.00       0.00       0.97      12.82       0.22      13.04        4.02   539.35   0.875
  sub68                     14.90       0.00       0.00       1.84      11.81       0.25      12.06        3.71   469.45   0.809
  sub69                     14.90       0.00       0.00       1.90      12.09       0.34      12.43        2.90   431.58   0.834
  sub70                     14.90      12.69       0.00       7.93      16.74       1.45      18.18        4.16   466.45   0.659
  sub71                     14.90       0.00       0.00       1.02      12.06       0.17      12.22        2.89   320.55   0.820
  sub72                     14.90       0.00       0.00       0.95      10.07       0.09      10.16        2.07   179.11   0.682
  1                         14.90      17.71       0.00       1.40      19.41       5.98      25.39        5.97   519.67   0.779
  2                         14.90       0.00       0.00       3.09       3.59       2.60       6.19        2.48   265.52   0.415
  
  
  ****************************
  Subcatchment Washoff Summary
  ****************************
  
  ------------------------------------------------------------------------------------------
                                 COD            SS            TN            TP         NH4-N
  Subcatchment                    kg            kg            kg            kg            kg
  ------------------------------------------------------------------------------------------
  sub0                         3.044         5.931         0.053         0.004         0.026
  sub1                        13.114        26.308         0.246         0.017         0.119
  sub2                         8.368        16.390         0.175         0.012         0.081
  sub3                        20.563        39.958         0.422         0.029         0.195
  sub4                        30.338        61.600         0.599         0.037         0.288
  sub5                        29.995        59.276         0.539         0.041         0.262
  sub7                         6.630        13.476         0.125         0.008         0.061
  sub8                         9.909        20.618         0.197         0.012         0.095
  sub9                         8.507        17.452         0.165         0.011         0.079
  sub10                       24.629        49.306         0.454         0.033         0.220
  sub11                       23.862        48.293         0.448         0.031         0.217
  sub12                       20.375        40.440         0.371         0.028         0.179
  sub14                       18.226        37.031         0.346         0.023         0.167
  sub15                       24.223        47.370         0.466         0.034         0.219
  sub16                       15.603        30.437         0.297         0.022         0.140
  sub17                       14.338        27.720         0.266         0.021         0.126
  sub22                       76.535       146.971         1.451         0.110         0.680
  sub23                       44.105        87.620         0.930         0.062         0.428
  sub60                      292.646       554.294         5.802         0.359         2.784
  sub61                      362.480       683.512         6.749         0.466         3.253
  sub62                      373.931       716.786         7.282         0.466         3.501
  sub63                      268.976       499.870         5.358         0.379         2.494
  sub64                      369.891       675.998         6.806         0.498         3.255
  sub65                      378.298       694.130         7.004         0.504         3.355
  sub66                      212.720       392.139         4.335         0.285         2.030
  sub67                      554.350      1051.982         9.982         0.739         4.832
  sub68                      396.803       755.428         7.579         0.516         3.628
  sub69                      355.691       683.967         6.671         0.472         3.196
  sub70                      617.662      1191.433        12.342         0.865         5.807
  sub71                      246.621       477.095         5.042         0.295         2.415
  sub72                      202.372       364.226         3.775         0.260         1.818
  1                          459.001       890.299         9.322         0.654         4.344
  2                           53.230        94.905         1.491         0.090         0.637
  ------------------------------------------------------------------------------------------
  System                    5537.036     10502.263       107.089         7.383        50.928
  
  
  ******************
  Node Depth Summary
  ******************
  
  ---------------------------------------------------------------------------------
                                 Average  Maximum  Maximum  Time of Max    Reported
                                   Depth    Depth      HGL   Occurrence   Max Depth
  Node                 Type       Meters   Meters   Meters  days hr:min      Meters
  ---------------------------------------------------------------------------------
  WS02001211           JUNCTION     0.32     0.35     5.19     0  02:08        0.35
  WS02001212           JUNCTION     0.09     0.15     5.21     0  02:08        0.15
  WS02001213           JUNCTION     0.35     0.50     5.26     0  02:07        0.50
  WS02003069           JUNCTION     0.20     0.37     4.95     0  02:08        0.37
  WS02003072           JUNCTION     0.26     0.44     4.81     0  02:09        0.44
  WS02003073           JUNCTION     0.14     0.26     4.33     0  02:09        0.26
  WS02003060           JUNCTION     0.18     0.33     5.27     0  02:07        0.33
  WS02003066           JUNCTION     0.16     0.28     5.84     0  02:05        0.28
  WS02003059           JUNCTION     0.43     0.58     5.27     0  02:06        0.58
  WS02003067           JUNCTION     0.42     0.67     5.99     0  02:05        0.67
  WS02004401           JUNCTION     0.49     0.82     6.82     0  02:02        0.82
  WS02004402           JUNCTION     0.52     0.85     6.81     0  02:01        0.85
  WS02004403           JUNCTION     0.55     0.87     6.80     0  02:02        0.86
  WS02004404           JUNCTION     0.62     0.95     6.80     0  02:01        0.95
  WS02004406           JUNCTION     0.63     0.92     6.75     0  02:03        0.92
  WS02004409           JUNCTION     0.30     0.62     6.39     0  02:05        0.62
  WS02004410           JUNCTION     0.32     0.64     6.36     0  02:05        0.64
  WS02004411           JUNCTION     0.34     0.65     6.33     0  02:06        0.65
  WS02004412           JUNCTION     0.37     0.66     6.30     0  02:05        0.66
  WS02004413           JUNCTION     0.51     0.82     6.29     0  02:05        0.82
  WS02004405           JUNCTION     0.62     0.92     6.77     0  02:02        0.92
  WS02006109           JUNCTION     0.54     0.88     7.49     0  01:58        0.88
  WS02006110           JUNCTION     0.56     0.86     7.44     0  01:59        0.86
  WS02006111           JUNCTION     0.14     0.26     6.97     0  02:00        0.26
  WS02006112           JUNCTION     0.64     1.00     6.88     0  02:02        1.00
  WS02006113           JUNCTION     0.21     0.41     7.31     0  01:59        0.41
  WS02006115           JUNCTION     0.38     0.71     6.85     0  02:02        0.71
  WS02006116           JUNCTION     0.46     0.79     6.83     0  02:02        0.79
  WS02006230           JUNCTION     0.44     0.82     7.57     0  01:59        0.82
  WS02006231           JUNCTION     0.21     0.42     7.55     0  01:59        0.42
  WS02006232           JUNCTION     0.31     0.50     7.54     0  01:59        0.50
  WS02006234           JUNCTION     0.19     0.35     7.51     0  01:59        0.35
  WS02006235           JUNCTION     0.20     0.29     7.45     0  02:00        0.29
  WS02006238           JUNCTION     0.23     0.32     7.46     0  02:00        0.32
  WS02006240           JUNCTION     0.19     0.25     7.55     0  02:01        0.25
  WS02006242           JUNCTION     0.26     0.33     7.60     0  02:01        0.33
  WS02006243           JUNCTION     0.17     0.22     7.64     0  02:00        0.22
  WS02006245           JUNCTION     0.19     0.24     7.73     0  01:59        0.24
  WS02006247           JUNCTION     0.22     0.27     7.77     0  01:59        0.27
  WS02006248           JUNCTION     0.17     0.22     7.81     0  01:58        0.22
  WS02006249           JUNCTION     0.22     0.27     7.87     0  01:58        0.27
  WS02006239           JUNCTION     0.21     0.28     7.49     0  02:01        0.28
  WS02006251           JUNCTION     0.20     0.26     7.93     0  01:57        0.26
  WS02006252           JUNCTION     0.52     0.59     8.84     0  03:11        0.59
  WS02006253           JUNCTION     0.24     0.34     7.99     0  01:57        0.34
  WS02006256           JUNCTION     2.11     2.35     9.28     0  00:00        2.35
  WS02004138           JUNCTION     0.19     0.20     7.45     0  00:00        0.19
  WS02004139           JUNCTION     0.24     0.26     5.17     0  02:09        0.26
  WS02004407           JUNCTION     0.14     0.28     6.59     0  02:03        0.28
  WS02006228           JUNCTION     0.52     0.89     7.55     0  01:59        0.89
  WS02006229           JUNCTION     0.49     0.88     7.57     0  01:58        0.88
  WS02006280           JUNCTION     0.09     0.24     8.51     0  01:58        0.24
  WS02006284           JUNCTION     0.39     0.62     9.01     0  01:58        0.62
  WS02006287           JUNCTION     0.13     0.36     9.31     0  01:57        0.36
  WSF200               JUNCTION     0.13     0.27     5.50     0  02:05        0.27
  HS02004901           JUNCTION     0.15     0.34    10.17     0  01:56        0.34
  HS02004881           JUNCTION     0.01     0.05     9.08     0  01:57        0.05
  HS02004876           JUNCTION     0.06     0.15     9.18     0  01:57        0.15
  HS02004870           JUNCTION     0.02     0.08     9.37     0  01:57        0.08
  HS02004862           JUNCTION     0.03     0.10     9.48     0  01:58        0.10
  HS02004856           JUNCTION     0.08     0.14     9.57     0  01:58        0.14
  HS02004852           JUNCTION     0.02     0.07     9.58     0  01:58        0.07
  HS02004848           JUNCTION     0.02     0.06     9.66     0  01:58        0.06
  HS02004842           JUNCTION     0.34     0.39     9.66     0  01:58        0.39
  HS02004837           JUNCTION     0.04     0.08     9.66     0  01:58        0.08
  HS02004830           JUNCTION     0.05     0.10     9.57     0  01:58        0.10
  HS02004824           JUNCTION     0.03     0.10     9.50     0  01:58        0.10
  HS02004817           JUNCTION     0.46     0.66     9.51     0  01:58        0.66
  HS02004807           JUNCTION     0.15     0.33     9.50     0  01:58        0.33
  HS02004802           JUNCTION     0.18     0.37     9.49     0  01:58        0.37
  HS02004799           JUNCTION     0.16     0.42     9.63     0  01:56        0.42
  HS02004792           JUNCTION     0.05     0.19     9.71     0  01:56        0.19
  HS02004788           JUNCTION     0.04     0.14    10.04     0  01:57        0.14
  HS02004785           JUNCTION     0.07     0.22    10.12     0  01:56        0.22
  HS02004777           JUNCTION     0.17     0.36    10.16     0  01:56        0.36
  HS02004770           JUNCTION     0.14     0.33    10.16     0  01:56        0.33
  HS02004480           JUNCTION     0.11     0.34     9.58     0  01:56        0.34
  HS02004479           JUNCTION     0.15     0.38     9.58     0  01:56        0.38
  HS02004478           JUNCTION     0.08     0.25     9.48     0  01:57        0.25
  YS02001745           JUNCTION     0.68     0.91     8.43     0  02:57        0.91
  YS02001748           JUNCTION     1.06     1.35     8.43     0  01:53        1.34
  YS02001751           JUNCTION     1.23     1.55     8.43     0  02:51        1.54
  YS02001754           JUNCTION     1.48     1.82     8.42     0  02:54        1.80
  YS02001762           JUNCTION     1.67     2.03     8.43     0  03:49        2.01
  YS02001765           JUNCTION     1.63     1.98     8.43     0  03:49        1.96
  YS02001767           JUNCTION     1.59     1.93     8.42     0  03:49        1.92
  YS02001770           JUNCTION     1.59     1.92     8.41     0  02:20        1.91
  YS02001774           JUNCTION     1.66     1.98     8.40     0  02:20        1.97
  YS02001779           JUNCTION     1.41     1.68     8.37     0  01:57        1.68
  YS02001882           JUNCTION     0.67     1.63     8.35     0  02:02        1.62
  YS02001884           JUNCTION     0.76     1.73     8.35     0  02:16        1.72
  YS02001759           JUNCTION     1.71     2.07     8.43     0  02:48        2.06
  YS02001887           JUNCTION     0.84     1.81     8.34     0  02:18        1.80
  YS02001890           JUNCTION     0.87     1.81     8.32     0  02:02        1.81
  YS02001898           JUNCTION     0.64     1.56     8.30     0  02:32        1.56
  YS02001901           JUNCTION     0.75     1.68     8.29     0  02:09        1.67
  YS02001904           JUNCTION     0.73     1.64     8.27     0  02:14        1.63
  YS02001907           JUNCTION     1.05     1.96     8.25     0  02:02        1.96
  YS02001910           JUNCTION     0.84     1.78     8.29     0  02:03        1.77
  YS02001915           JUNCTION     0.65     1.59     8.31     0  02:03        1.57
  YS02001918           JUNCTION     0.39     1.28     8.34     0  02:03        1.25
  YS02001619           JUNCTION     1.21     1.52     8.45     0  01:52        1.48
  YS02001629           JUNCTION     1.55     1.85     8.40     0  01:52        1.84
  YS02001641           JUNCTION     1.64     1.94     8.38     0  01:59        1.93
  YS02001644           JUNCTION     1.64     1.92     8.35     0  01:55        1.92
  YS02001652           JUNCTION     1.49     2.00     8.60     0  02:14        1.90
  YS02001655           JUNCTION     1.26     1.89     8.74     0  02:14        1.72
  YS02001920           JUNCTION     0.49     1.35     8.36     0  02:03        1.32
  YS02001923           JUNCTION     0.32     1.11     8.37     0  02:03        1.07
  YS02001926           JUNCTION     0.35     0.93     8.37     0  02:03        0.92
  YS02001929           JUNCTION     0.21     0.70     8.39     0  02:03        0.68
  YS02001658           JUNCTION     1.01     1.77     8.91     0  02:14        1.53
  YS02001661           JUNCTION     0.79     1.73     9.14     0  02:14        1.46
  YS02001664           JUNCTION     0.33     0.57     8.50     0  03:58        0.56
  YS02001622           JUNCTION     1.23     1.53     8.43     0  01:52        1.50
  YS02001633           JUNCTION     1.64     1.95     8.41     0  01:59        1.94
  YS02001649           JUNCTION     1.68     2.05     8.44     0  02:10        2.04
  YS02001757           JUNCTION     1.80     2.16     8.42     0  02:56        2.15
  YS02001895           JUNCTION     0.63     1.57     8.31     0  02:25        1.56
  YS02001625           JUNCTION     1.50     1.78     8.38     0  01:52        1.78
  YS02163301           JUNCTION     1.58     1.89     8.40     0  01:52        1.88
  YS02163601           JUNCTION     1.69     1.99     8.39     0  01:59        1.99
  YS02164001           JUNCTION     1.62     1.93     8.38     0  01:59        1.92
  YS02001647           JUNCTION     1.48     1.80     8.41     0  02:10        1.79
  YSB1154              JUNCTION     0.29     0.53     9.59     0  01:56        0.53
  YSB6556              JUNCTION     0.18     0.42     9.59     0  01:57        0.42
  YSB1174              JUNCTION     0.24     0.48     9.59     0  01:56        0.48
  YSB1171              JUNCTION     0.44     0.68     9.59     0  01:56        0.68
  YS02006553           JUNCTION     1.05     1.97     8.26     0  02:36        1.96
  YS02006561           JUNCTION     0.37     1.07     7.73     0  02:52        1.06
  YS02006556           JUNCTION     1.02     1.94     8.25     0  02:36        1.92
  YS02006558           JUNCTION     1.06     1.99     8.25     0  02:36        1.95
  YS02001783           JUNCTION     0.58     1.45     7.59     0  02:50        1.44
  YS02001784           JUNCTION     0.57     1.38     7.45     0  02:56        1.38
  YS02001786           JUNCTION     0.48     1.23     7.26     0  03:01        1.22
  YS02001788           JUNCTION     0.38     1.09     7.07     0  02:55        1.08
  YS02001790           JUNCTION     0.45     1.25     6.89     0  02:58        1.24
  YS02001791           JUNCTION     0.34     1.22     6.69     0  02:56        1.22
  YS02001793           JUNCTION     0.36     1.74     6.58     0  02:51        1.74
  WSC                  OUTFALL      0.14     0.26     0.93     0  02:10        0.26
  3                    OUTFALL      0.00     0.00     7.16     0  00:00        0.00
  4                    OUTFALL      0.00     0.00     7.67     0  00:00        0.00
  5                    OUTFALL      0.00     0.00     4.91     0  00:00        0.00
  JK-storage           STORAGE      1.22     5.74     6.54     0  02:54        5.74
  CC-storage           STORAGE      1.00     1.37     8.37     0  03:01        1.37
  XR-storage           STORAGE      6.05     7.72     5.72     0  02:27        7.72
  
  
  *******************
  Node Inflow Summary
  *******************
  
  -------------------------------------------------------------------------------------------------
                                  Maximum  Maximum                  Lateral       Total        Flow
                                  Lateral    Total  Time of Max      Inflow      Inflow     Balance
                                   Inflow   Inflow   Occurrence      Volume      Volume       Error
  Node                 Type           LPS      LPS  days hr:min    10^6 ltr    10^6 ltr     Percent
  -------------------------------------------------------------------------------------------------
  WS02001211           JUNCTION      7.35    68.73     0  02:08       0.212        0.44       2.251
  WS02001212           JUNCTION      0.00    61.50     0  02:07           0       0.323       0.730
  WS02001213           JUNCTION      0.00    62.49     0  01:44           0       0.326       2.933
  WS02003069           JUNCTION      0.32   424.84     0  02:08     0.00922         3.7       0.180
  WS02003072           JUNCTION      0.00   424.73     0  02:08           0        3.69       0.283
  WS02003073           JUNCTION      1.82   426.50     0  02:09      0.0524        3.73       0.249
  WS02003060           JUNCTION     16.53   486.38     0  02:06       0.476        3.94       0.160
  WS02003066           JUNCTION      0.00   469.72     0  02:05           0        3.36       0.057
  WS02003059           JUNCTION      0.00    97.57     0  01:44           0       0.344       5.674
  WS02003067           JUNCTION      0.00   469.64     0  02:05           0        3.37       0.147
  WS02004401           JUNCTION      0.00   472.87     0  02:02           0        3.49       0.347
  WS02004402           JUNCTION      0.00   473.52     0  02:01           0        3.48       0.347
  WS02004403           JUNCTION      0.00   474.27     0  02:01           0        3.47       0.333
  WS02004404           JUNCTION      0.16   488.33     0  02:01     0.00467        3.46       0.251
  WS02004406           JUNCTION      0.00   477.53     0  02:02           0        3.44       0.663
  WS02004409           JUNCTION      0.00   472.47     0  02:03           0        3.41       0.139
  WS02004410           JUNCTION      0.00   471.48     0  02:03           0        3.41       0.194
  WS02004411           JUNCTION      0.00   470.80     0  02:04           0         3.4       0.226
  WS02004412           JUNCTION      0.00   470.17     0  02:04           0        3.39       0.284
  WS02004413           JUNCTION      0.00   469.95     0  02:05           0        3.38       0.487
  WS02004405           JUNCTION      0.04   532.48     0  02:01      0.0011        3.45       0.401
  WS02006109           JUNCTION      1.23   452.84     0  01:59      0.0354        3.45       0.359
  WS02006110           JUNCTION      0.00   452.84     0  01:59           0        3.44       0.322
  WS02006111           JUNCTION      0.00   466.87     0  02:00           0        3.43       0.039
  WS02006112           JUNCTION     23.75   477.01     0  02:00      0.0974        3.52       0.469
  WS02006113           JUNCTION      0.00   452.93     0  01:59           0        3.43       0.084
  WS02006115           JUNCTION      0.00   475.04     0  02:00           0        3.51       0.302
  WS02006116           JUNCTION      0.00   473.57     0  02:00           0         3.5       0.212
  WS02006230           JUNCTION     10.28   138.56     0  01:58       0.296        1.21       0.488
  WS02006231           JUNCTION      0.00   138.26     0  01:58           0       0.953       0.220
  WS02006232           JUNCTION      0.00   138.00     0  01:59           0       0.953       0.587
  WS02006234           JUNCTION      0.00   137.94     0  01:59           0       0.952       0.116
  WS02006235           JUNCTION      0.00   514.55     0  02:00           0         8.4       0.040
  WS02006238           JUNCTION      0.00    94.64     0  02:02           0        1.68       0.163
  WS02006240           JUNCTION      0.00    94.53     0  02:01           0        1.67       0.240
  WS02006242           JUNCTION      0.00    94.59     0  02:00           0        1.68       0.335
  WS02006243           JUNCTION      0.00    94.64     0  01:59           0        1.68       0.134
  WS02006245           JUNCTION      0.00    94.66     0  01:59           0        1.68       0.242
  WS02006247           JUNCTION      0.00    94.67     0  01:58           0        1.69       0.214
  WS02006248           JUNCTION      0.00    94.69     0  01:58           0        1.69       0.083
  WS02006249           JUNCTION      0.00    94.73     0  01:56           0        1.69       0.318
  WS02006239           JUNCTION      0.00    94.54     0  02:02           0        1.67       0.203
  WS02006251           JUNCTION      0.08   524.06     0  01:57     0.00222        9.78       0.031
  WS02006252           JUNCTION      0.00   400.00     0  01:36           0        9.24       0.006
  WS02006253           JUNCTION      3.07   123.42     0  01:57      0.0115       0.537       0.549
  WS02006256           JUNCTION      0.00   983.00     0  00:00           0        14.9      -0.009
  WS02004138           JUNCTION      0.00   380.00     0  00:00           0        10.9       0.058
  WS02004139           JUNCTION      0.32   449.03     0  02:09     0.00924        11.3       0.078
  WS02004407           JUNCTION      0.00   472.92     0  02:03           0        3.41       0.066
  WS02006228           JUNCTION      0.00   451.61     0  01:59           0        3.43       0.234
  WS02006229           JUNCTION      0.00   579.88     0  01:58           0        3.67       0.249
  WS02006280           JUNCTION      0.00   579.87     0  01:58           0        2.74       0.002
  WS02006284           JUNCTION      0.10   579.80     0  01:58     0.00275        2.74       0.019
  WS02006287           JUNCTION      0.00   579.62     0  01:58           0        2.74       0.026
  WSF200               JUNCTION      0.00   469.70     0  02:05           0        3.36       0.032
  HS02004901           JUNCTION     28.95    28.95     0  01:54       0.118       0.118       1.509
  HS02004881           JUNCTION     11.78   120.65     0  01:57       0.047       0.525       0.012
  HS02004876           JUNCTION     21.19   109.35     0  01:57      0.0909       0.479       0.112
  HS02004870           JUNCTION     21.75    88.39     0  01:57       0.089       0.388       0.027
  HS02004862           JUNCTION     20.49    67.35     0  01:58       0.101       0.299       0.057
  HS02004856           JUNCTION     16.28    46.90     0  01:57       0.067       0.199       0.725
  HS02004852           JUNCTION      0.00    31.11     0  01:58           0       0.132       0.040
  HS02004848           JUNCTION     44.96    44.96     0  02:00       0.226       0.226       0.019
  HS02004842           JUNCTION      0.00    14.92     0  02:10           0       0.107      13.873
  HS02004837           JUNCTION     42.95    55.96     0  01:57       0.337       0.431       0.188
  HS02004830           JUNCTION      0.15    56.09     0  01:58     0.00432       0.422       0.293
  HS02004824           JUNCTION     53.17   109.01     0  02:00       0.282       0.702       0.076
  HS02004817           JUNCTION      0.60   110.36     0  02:01      0.0173       0.719       2.374
  HS02004807           JUNCTION     40.20   148.00     0  02:00       0.163       0.866       0.503
  HS02004802           JUNCTION      0.00   148.56     0  02:00           0       0.865       0.460
  HS02004799           JUNCTION     32.05   367.23     0  01:56       0.133        1.62       0.177
  HS02004792           JUNCTION    142.46   335.59     0  01:56       0.627        1.49       0.027
  HS02004788           JUNCTION     46.97   194.07     0  01:56       0.245       0.865       0.045
  HS02004785           JUNCTION      0.15   147.32     0  01:56     0.00432       0.622       0.078
  HS02004777           JUNCTION      0.03   147.39     0  01:55    0.000864       0.622       0.841
  HS02004770           JUNCTION    119.36   147.88     0  01:55       0.507       0.624       0.495
  HS02004480           JUNCTION      0.00   433.57     0  01:56           0         1.9       0.054
  HS02004479           JUNCTION      0.00    66.50     0  01:56           0       0.287       0.256
  HS02004478           JUNCTION      0.00   579.58     0  01:58           0        2.75       0.012
  YS02001745           JUNCTION    367.87   367.87     0  02:37        3.47        3.47       0.170
  YS02001748           JUNCTION      0.04   379.16     0  02:36      0.0013        3.46       0.528
  YS02001751           JUNCTION      0.01   378.98     0  02:36    0.000317        3.45       0.676
  YS02001754           JUNCTION      0.26   378.26     0  02:36     0.00749        3.43       0.712
  YS02001762           JUNCTION      0.00   418.97     0  02:09           0        2.18       0.951
  YS02001765           JUNCTION      0.00   418.77     0  02:09           0        2.18       1.095
  YS02001767           JUNCTION      0.54   419.04     0  02:09      0.0154         2.2       1.614
  YS02001770           JUNCTION    448.49   514.28     0  02:54        3.84        4.02       0.748
  YS02001774           JUNCTION      0.00   514.94     0  02:54           0        1.97       1.249
  YS02001779           JUNCTION      0.01   516.25     0  02:54    0.000144        1.94       0.764
  YS02001882           JUNCTION      0.00    23.24     0  01:56           0      0.0274       8.521
  YS02001884           JUNCTION      0.00    38.28     0  01:54           0      0.0645      10.348
  YS02001759           JUNCTION    432.79   827.49     0  02:10        3.55        5.53       0.406
  YS02001887           JUNCTION    539.80   540.78     0  02:18        4.04        4.07       0.206
  YS02001890           JUNCTION      0.00   540.83     0  02:17           0        4.02       0.227
  YS02001898           JUNCTION      0.00   517.78     0  02:32           0        3.98       0.069
  YS02001901           JUNCTION      0.00   517.94     0  02:32           0        3.98       0.178
  YS02001904           JUNCTION      0.00   517.75     0  02:32           0        3.97       0.153
  YS02001907           JUNCTION      0.00  1016.70     0  02:04           0        8.99       0.261
  YS02001910           JUNCTION      0.00   508.94     0  02:04           0        5.03       0.227
  YS02001915           JUNCTION    320.57   508.69     0  02:04        2.89        5.05       0.121
  YS02001918           JUNCTION      0.00   235.82     0  02:04           0        2.17       0.088
  YS02001619           JUNCTION    316.84   316.84     0  02:35        2.89        2.89       0.400
  YS02001629           JUNCTION      0.00   205.58     0  01:54           0        1.53       1.795
  YS02001641           JUNCTION      0.00   428.78     0  01:54           0        4.88       0.418
  YS02001644           JUNCTION    351.67  1299.55     0  02:54        3.35        10.5       0.239
  YS02001652           JUNCTION      0.00   448.69     0  02:10           0        3.05       0.725
  YS02001655           JUNCTION      0.15   447.72     0  02:10     0.00443        3.08       0.816
  YS02001920           JUNCTION      2.87   235.76     0  02:04      0.0827        2.16       0.142
  YS02001923           JUNCTION      0.04   214.27     0  02:04     0.00109        2.07       0.052
  YS02001926           JUNCTION      0.05   182.70     0  02:05      0.0015        2.07       0.148
  YS02001929           JUNCTION    179.11   179.11     0  03:01        2.07        2.07       0.028
  YS02001658           JUNCTION      0.00   475.94     0  02:18           0        3.09       0.689
  YS02001661           JUNCTION      0.00   753.11     0  02:15           0        3.35      -1.301
  YS02001664           JUNCTION    394.14   394.14     0  02:21        3.05        3.35       0.100
  YS02001622           JUNCTION      0.00   317.54     0  02:35           0        2.88       1.094
  YS02001633           JUNCTION    358.44   427.84     0  01:54        3.45        4.94       0.639
  YS02001649           JUNCTION      0.00  1025.72     0  02:04           0        6.36       0.577
  YS02001757           JUNCTION      0.00  2114.38     0  02:06           0        12.7       0.721
  YS02001895           JUNCTION      0.00   517.72     0  02:20           0        3.98       0.128
  YS02001625           JUNCTION      0.00   317.09     0  02:34           0        2.85       1.370
  YS02163301           JUNCTION      0.00   220.28     0  01:50           0        1.53       1.565
  YS02163601           JUNCTION      0.11   428.10     0  01:54     0.00317        4.89       0.608
  YS02164001           JUNCTION      0.00   428.06     0  01:54           0        4.87       0.385
  YS02001647           JUNCTION      0.00   676.79     0  02:02           0        4.94       0.557
  YSB1154              JUNCTION     37.33    37.33     0  01:55        0.16        0.16       0.906
  YSB6556              JUNCTION      0.00    37.15     0  01:56           0       0.161       0.783
  YSB1174              JUNCTION     30.90    30.90     0  01:53       0.118       0.119       1.089
  YSB1171              JUNCTION      0.00    66.69     0  01:56           0       0.286       2.268
  YS02006553           JUNCTION      0.00   719.03     0  02:02           0        7.65       0.204
  YS02006561           JUNCTION      0.00  1144.27     0  02:29           0        11.3       0.007
  YS02006556           JUNCTION      0.00   718.28     0  02:02           0        7.66       0.137
  YS02006558           JUNCTION    470.33  1145.17     0  02:29        3.73        11.4       0.046
  YS02001783           JUNCTION      0.00  1144.19     0  02:17           0        11.3       0.020
  YS02001784           JUNCTION      1.06  1145.37     0  02:34      0.0305        11.4       0.032
  YS02001786           JUNCTION      0.06  1145.22     0  02:29     0.00162        11.4       0.031
  YS02001788           JUNCTION      0.07  1145.38     0  02:29     0.00204        11.4       0.018
  YS02001790           JUNCTION      0.15  1160.84     0  02:32     0.00446        11.4       0.023
  YS02001791           JUNCTION      0.00  1275.40     0  02:23           0        11.4       0.003
  YS02001793           JUNCTION      0.00  1230.47     0  02:28           0        11.3       0.001
  WSC                  OUTFALL       0.00   426.40     0  02:10           0        3.72       0.000
  3                    OUTFALL       0.00   514.55     0  02:00           0        7.71       0.000
  4                    OUTFALL       0.00   428.87     0  01:57           0        8.08       0.000
  5                    OUTFALL       0.00   449.01     0  02:09           0        11.3       0.000
  JK-storage           STORAGE       0.00  1227.15     0  02:07           0        11.5     -23.054
  CC-storage           STORAGE       0.00  2114.20     0  02:06           0        11.9       0.045
  XR-storage           STORAGE     937.70   937.70     0  03:01        14.2        14.8      -2.195
  
  
  **********************
  Node Surcharge Summary
  **********************
  
  Surcharging occurs when water rises above the top of the highest conduit.
  ---------------------------------------------------------------------
                                               Max. Height   Min. Depth
                                   Hours       Above Crown    Below Rim
  Node                 Type      Surcharged         Meters       Meters
  ---------------------------------------------------------------------
  WS02006109           JUNCTION        0.42          0.057        1.763
  WS02006252           JUNCTION        6.41          0.193        0.907
  WS02006256           JUNCTION        6.60          2.050        0.000
  WS02006228           JUNCTION        0.40          0.064        2.136
  YS02001748           JUNCTION        5.26          0.274        0.916
  YS02001751           JUNCTION        6.15          0.549        0.651
  YS02001754           JUNCTION        6.21          0.767        0.383
  YS02001762           JUNCTION        6.29          1.035        0.115
  YS02001765           JUNCTION        6.28          0.983        0.117
  YS02001767           JUNCTION        6.26          0.935        0.095
  YS02001770           JUNCTION        6.25          0.887        0.033
  YS02001774           JUNCTION        6.29          0.978        0.072
  YS02001779           JUNCTION        6.21          0.680        0.000
  YS02001882           JUNCTION        1.58          0.631        0.199
  YS02001884           JUNCTION        1.60          0.669        0.201
  YS02001759           JUNCTION        6.30          1.067        0.143
  YS02001887           JUNCTION        1.66          0.756        0.194
  YS02001890           JUNCTION        1.68          0.760        0.000
  YS02001898           JUNCTION        1.54          0.532        0.208
  YS02001901           JUNCTION        1.63          0.677        0.193
  YS02001904           JUNCTION        1.61          0.640        0.210
  YS02001907           JUNCTION        2.23          0.950        0.000
  YS02001910           JUNCTION        1.72          0.782        0.318
  YS02001915           JUNCTION        1.56          0.594        0.406
  YS02001918           JUNCTION        1.38          0.276        0.534
  YS02001619           JUNCTION        6.16          0.524        0.086
  YS02001629           JUNCTION        6.16          0.470        0.000
  YS02001641           JUNCTION        6.27          0.941        0.159
  YS02001644           JUNCTION        6.27          0.920        0.000
  YS02001652           JUNCTION        6.22          0.970        0.160
  YS02001655           JUNCTION        6.16          0.891        0.309
  YS02001920           JUNCTION        1.41          0.353        0.787
  YS02001658           JUNCTION        5.34          0.769        0.531
  YS02001661           JUNCTION        0.22          0.664        0.726
  YS02001622           JUNCTION        6.17          0.531        0.089
  YS02001633           JUNCTION        6.27          0.932        0.128
  YS02001649           JUNCTION        6.28          1.050        0.000
  YS02001757           JUNCTION        6.33          1.164        0.046
  YS02001895           JUNCTION        1.55          0.567        0.183
  YS02001625           JUNCTION        6.24          0.780        0.000
  YS02163301           JUNCTION        6.25          0.888        0.142
  YS02163601           JUNCTION        6.29          0.995        0.085
  YS02164001           JUNCTION        6.27          0.926        0.174
  YS02001647           JUNCTION        6.23          0.803        0.097
  YS02006553           JUNCTION        2.29          0.975        0.215
  YS02006561           JUNCTION        1.39          0.267        0.883
  YS02006556           JUNCTION        1.91          0.904        0.446
  YS02006558           JUNCTION        1.88          0.886        0.514
  YS02001783           JUNCTION        1.68          0.647        0.953
  YS02001784           JUNCTION        1.64          0.585        0.905
  YS02001786           JUNCTION        1.51          0.427        1.003
  YS02001788           JUNCTION        0.86          0.291        1.189
  YS02001790           JUNCTION        0.96          0.448        0.709
  YS02001791           JUNCTION        0.96          0.423        1.497
  YS02001793           JUNCTION        1.08          0.744        1.856
  
  
  *********************
  Node Flooding Summary
  *********************
  
  Flooding refers to all water that overflows a node, whether it ponds or not.
  --------------------------------------------------------------------------
                                                             Total   Maximum
                                 Maximum   Time of Max       Flood    Ponded
                        Hours       Rate    Occurrence      Volume     Depth
  Node                 Flooded       LPS   days hr:min    10^6 ltr    Meters
  --------------------------------------------------------------------------
  WS02006256              5.40    978.40      0  00:00       8.488     0.000
  YS02001779              2.76    516.07      0  02:54       1.923     0.000
  YS02001890              0.54     25.10      0  02:17       0.026     0.000
  YS02001907              1.25    435.32      0  02:41       1.328     0.000
  YS02001629              0.01      6.10      0  01:52       0.000     0.000
  YS02001644              3.84   1299.12      0  02:54       7.877     0.000
  YS02001649              0.01     15.30      0  02:18       0.000     0.000
  YS02001625              1.91    296.79      0  02:39       1.289     0.000
  XR-storage              3.97    557.69      0  03:01       3.474     0.000
  
  
  **********************
  Storage Volume Summary
  **********************
  
  --------------------------------------------------------------------------------------------------
                         Average     Avg  Evap Exfil       Maximum     Max    Time of Max    Maximum
                          Volume    Pcnt  Pcnt  Pcnt        Volume    Pcnt     Occurrence    Outflow
  Storage Unit           1000 m3    Full  Loss  Loss       1000 m3    Full    days hr:min        LPS
  --------------------------------------------------------------------------------------------------
  JK-storage               0.061      21     0     0         0.288      99       0  02:54     983.00
  CC-storage               2.799      18     0     0         3.820      24       0  03:01     400.00
  XR-storage               0.725      78     0     0         0.926     100       0  02:27     380.00
  
  
  ***********************
  Outfall Loading Summary
  ***********************
  
  ---------------------------------------------------------------------------------------------------------------------------------
                         Flow       Avg       Max       Total         Total         Total         Total         Total         Total
                         Freq      Flow      Flow      Volume           COD            SS            TN            TP         NH4-N
  Outfall Node           Pcnt       LPS       LPS    10^6 ltr            kg            kg            kg            kg            kg
  ---------------------------------------------------------------------------------------------------------------------------------
  WSC                   99.97    151.65    426.40       3.722       490.480       892.985        24.058         2.697        14.169
  3                     99.98    305.11    514.55       7.706       423.667       814.982         8.292         0.596         4.042
  4                     99.97    315.48    428.87       8.083       754.168      1420.371        14.790         1.017         7.135
  5                     99.99    393.67    449.01      11.252      1378.942      2324.793       104.911        12.684        64.318
  ---------------------------------------------------------------------------------------------------------------------------------
  System                99.98   1165.91   1790.72      30.762      3047.257      5453.131       152.050        16.994        89.664
  
  
  ********************
  Link Flow Summary
  ********************
  
  -----------------------------------------------------------------------------
                                 Maximum  Time of Max   Maximum    Max/    Max/
                                  |Flow|   Occurrence   |Veloc|    Full    Full
  Link                 Type          LPS  days hr:min     m/sec    Flow   Depth
  -----------------------------------------------------------------------------
  WS02003066WSF200     CONDUIT    469.70     0  02:05      2.79    0.08    0.21
  WS02006287WS02006284 CONDUIT    579.70     0  01:58      2.27    0.27    0.36
  WS02006284WS02006280 CONDUIT    579.87     0  01:58      2.51    0.24    0.34
  WS02006280WS02006229 CONDUIT    579.88     0  01:58      4.06    0.12    0.24
  WS02006229WS02006228 CONDUIT    451.61     0  01:59      0.90    1.50    1.00
  WS02006256WS02006235 CONDUIT    289.81     0  02:28      4.46    3.07    0.98
  WS02006253WS02006251 CONDUIT    123.47     0  01:57      0.80    0.37    0.42
  WS02006252WS02006251 CONDUIT    401.07     0  03:41      3.19    1.47    1.00
  WS02006251WS02006249 CONDUIT     94.73     0  01:56      0.76    0.27    0.38
  WS02006249WS02006248 CONDUIT     94.69     0  01:58      0.82    0.52    0.34
  WS02006248WS02006247 CONDUIT     94.67     0  01:58      0.83    0.21    0.35
  WS02006247WS02006245 CONDUIT     94.66     0  01:59      0.79    0.75    0.36
  WS02006245WS02006243 CONDUIT     94.64     0  01:59      0.89    0.28    0.32
  WS02006243WS02006242 CONDUIT     94.59     0  02:00      0.80    0.20    0.37
  WS02006242WS02006240 CONDUIT     94.53     0  02:01      0.63    0.38    0.41
  WS02006240WS02006239 CONDUIT     94.54     0  02:02      0.80    0.30    0.35
  WS02006239WS02006238 CONDUIT     94.64     0  02:02      0.71    0.30    0.41
  WS02006238WS02006235 CONDUIT     94.80     0  02:03      1.17    0.21    0.43
  WS02006235WS02006234 CONDUIT    137.93     0  02:00      0.86    1.46    0.43
  WS02006234WS02006232 CONDUIT    137.94     0  01:59      0.82    0.28    0.61
  WS02006232WS02006231 CONDUIT    138.00     0  01:59      0.52    0.29    0.65
  WS02006231WS02006230 CONDUIT    138.26     0  01:58      0.60    2.10    0.62
  WS02006230WS02006229 CONDUIT    128.28     0  01:58      0.40    2.85    1.00
  WS02006228WS02006109 CONDUIT    451.61     0  01:59      0.90    1.97    1.00
  WS02006116WS02004401 CONDUIT    472.87     0  02:02      0.73    0.65    0.80
  WS02006115WS02006116 CONDUIT    473.57     0  02:00      0.96    0.61    0.72
  WS02006113WS02006111 CONDUIT    466.87     0  02:00      2.32    0.56    0.42
  WS02006112WS02006115 CONDUIT    475.04     0  02:00      0.67    0.28    0.85
  WS02006111WS02006112 CONDUIT    454.82     0  02:00      1.30    0.22    0.66
  WS02006110WS02006113 CONDUIT    452.93     0  01:59      1.11    0.41    0.76
  WS02006109WS02006110 CONDUIT    452.84     0  01:59      0.91    0.87    0.97
  WS02004411WS02004412 CONDUIT    470.17     0  02:04      0.99    0.67    0.65
  WS02004401WS02004402 CONDUIT    473.52     0  02:01      0.68    0.57    0.83
  WS02004413WS02003067 CONDUIT    469.64     0  02:05      1.03    0.20    0.56
  WS02004412WS02004413 CONDUIT    469.95     0  02:05      0.92    0.31    0.74
  WS02004410WS02004411 CONDUIT    470.80     0  02:04      0.89    0.64    0.64
  WS02004409WS02004410 CONDUIT    471.48     0  02:03      0.91    0.61    0.63
  WS02004407WS02004409 CONDUIT    472.47     0  02:03      1.39    0.17    0.45
  WS02004406WS02004407 CONDUIT    472.92     0  02:03      0.96    0.21    0.60
  WS02004405WS02004406 CONDUIT    477.53     0  02:02      0.63    0.94    0.92
  WS02004404WS02004405 CONDUIT    532.44     0  02:01      0.70    5.22    0.93
  WS02004403WS02004404 CONDUIT    488.16     0  02:01      0.66    0.35    0.91
  WS02004402WS02004403 CONDUIT    474.27     0  02:01      0.66    0.68    0.86
  WS02004139WS02001211 CONDUIT     68.71     0  02:09      0.48    0.09    0.22
  WS02004138WS02004139 CONDUIT    396.29     0  00:00      3.67    0.08    0.20
  WS02003067WS02003066 CONDUIT    469.72     0  02:05      1.12    0.15    0.40
  WS02001213WS02003059 CONDUIT     61.84     0  02:05      0.23    0.10    0.53
  WS02001212WS02001213 CONDUIT     61.50     0  02:07      0.73    0.09    0.16
  WS02001211WS02001212 CONDUIT     61.38     0  02:08      0.40    0.05    0.25
  WS02003072WS02003073 CONDUIT    424.68     0  02:09      1.31    0.92    0.33
  WS02003069WS02003072 CONDUIT    424.73     0  02:08      1.26    0.20    0.34
  WS02003060WS02003069 CONDUIT    424.52     0  02:08      1.54    0.17    0.29
  WS02003059WS02003060 CONDUIT     97.57     0  01:44      0.56    0.06    0.46
  HS02004901HS02004770 CONDUIT     28.58     0  01:55      0.08    0.11    0.48
  HS02004876HS02004881 CONDUIT    109.36     0  01:57      1.12    1.16    0.14
  HS02004870HS02004876 CONDUIT     88.37     0  01:57      0.77    0.06    0.16
  HS02004842HS02004848 CONDUIT     14.92     0  02:10      0.07    0.01    0.32
  HS02004837HS02004842 CONDUIT     15.29     0  02:10      0.42    0.01    0.34
  HS02004830HS02004837 CONDUIT     55.94     0  01:58      0.63    0.06    0.13
  HS02004824HS02004830 CONDUIT     56.05     0  01:58      0.62    0.07    0.14
  HS02004817HS02004824 CONDUIT    109.76     0  02:01      0.29    0.05    0.54
  HS02004770HS02004777 CONDUIT    147.36     0  01:55      0.43    0.27    0.49
  HS02004799HS02004480 CONDUIT    367.12     0  01:56      0.97    0.46    0.54
  HS02004792HS02004799 CONDUIT    335.51     0  01:56      1.10    0.21    0.44
  HS02004788HS02004792 CONDUIT    194.02     0  01:57      1.19    0.13    0.23
  HS02004785HS02004788 CONDUIT    147.29     0  01:57      0.82    1.11    0.26
  HS02004777HS02004785 CONDUIT    147.17     0  01:56      0.51    0.18    0.41
  HS02004480HS02004478 CONDUIT    433.61     0  01:57      1.45    1.83    0.43
  HS02004479HS02004480 CONDUIT     66.55     0  01:57      0.34    0.06    0.52
  HS02004862HS02004870 CONDUIT     67.33     0  01:58      0.75    0.07    0.13
  HS02004848HS02004852 CONDUIT     31.11     0  01:58      0.50    0.04    0.09
  HS02004856HS02004862 CONDUIT     46.87     0  01:58      0.56    0.05    0.12
  HS02004852HS02004856 CONDUIT     31.15     0  01:59      0.30    0.04    0.15
  HS02004802HS02004478 CONDUIT    149.18     0  02:01      0.49    0.13    0.44
  HS02004478WS02006287 CONDUIT    579.62     0  01:58      1.99    0.16    0.32
  HS02004817HS02004807 CONDUIT    111.27     0  02:02      0.23    0.07    0.71
  HS02004807HS02004802 CONDUIT    148.56     0  02:00      0.43    0.28    0.49
  YS02001759YS02001757 CONDUIT    827.89     0  02:10      1.05    0.59    1.00
  YS02001762YS02001759 CONDUIT    419.23     0  02:09      0.53    0.48    1.00
  YS02001765YS02001762 CONDUIT    418.97     0  02:09      0.53    0.39    1.00
  YS02001770YS02001767 CONDUIT    418.50     0  02:09      0.53    1.66    1.00
  YS02001774YS02001770 CONDUIT    514.94     0  02:54      0.66    0.33    1.00
  YS02001779YS02001774 CONDUIT    516.24     0  02:54      0.66    0.26    1.00
  YS02001649YS02001757 CONDUIT   1027.24     0  02:04      1.31    0.62    1.00
  YS02001767YS02001765 CONDUIT    418.77     0  02:09      0.53    0.53    1.00
  YS02006561YS02001783 CONDUIT   1144.19     0  02:17      2.28    0.59    1.00
  YS02001783YS02001784 CONDUIT   1144.31     0  02:34      2.28    1.58    1.00
  YS02001784YS02001785 CONDUIT   1145.16     0  02:29      2.28    2.66    1.00
  YS02001788YS02001790 CONDUIT   1160.69     0  02:32      2.71    0.86    1.00
  YS02001790YS02001791 CONDUIT   1275.40     0  02:23      3.42    1.39    1.00
  YS02001791YS02001793 CONDUIT   1230.47     0  02:28      6.76    0.53    1.00
  YS02001910YS02001907 CONDUIT    509.27     0  02:04      0.65    0.29    1.00
  YS02001786YS02001788 CONDUIT   1145.31     0  02:29      2.46    2.21    1.00
  YS02001915YS02001910 CONDUIT    508.94     0  02:04      0.65    0.25    1.00
  YS02001918YS02001915 CONDUIT    267.22     0  03:29      0.46    0.15    1.00
  YS02001923YS02001920 CONDUIT    232.89     0  02:04      0.78    0.10    1.00
  YS02001926YS02001923 CONDUIT    214.23     0  02:04      0.89    0.31    0.92
  YS02001929YS02001926 CONDUIT    182.65     0  02:05      0.95    0.09    0.81
  YS02001920YS02001918 CONDUIT    235.82     0  02:04      0.74    0.23    1.00
  YS02001629YS02163301 CONDUIT    220.28     0  01:50      0.28    0.27    1.00
  YS02001619YS02001622 CONDUIT    317.54     0  02:35      0.70    0.47    1.00
  YS02001622YS02001625 CONDUIT    317.09     0  02:34      0.40    0.17    1.00
  YS02001625YS02001629 CONDUIT    205.58     0  01:54      0.28    0.10    1.00
  YS02163301YS02001633 CONDUIT    221.84     0  01:50      0.28    0.21    1.00
  YS02163601YS02164001 CONDUIT    428.06     0  01:54      0.55    0.38    1.00
  YS02164001YS02001641 CONDUIT    428.78     0  01:54      0.55    0.59    1.00
  YS02001641YS02001644 CONDUIT    429.25     0  01:54      0.55    1.39    1.00
  YS02001647YS02001649 CONDUIT    676.74     0  02:03      0.86    0.36    1.00
  YS02006553YS02006556 CONDUIT    718.28     0  02:02      0.91    0.61    1.00
  YS02006556YS02006558 CONDUIT    718.00     0  02:02      0.91    0.57    1.00
  YSB6556YSB1171       CONDUIT     37.19     0  01:57      0.11    0.04    0.79
  YS02001907YS02006553 CONDUIT    719.03     0  02:02      0.80    0.85    1.00
  YS02006558YS02006561 CONDUIT   1144.27     0  02:29      4.05    2.53    1.00
  YS02001633YS02163601 CONDUIT    427.99     0  01:54      0.54    0.45    1.00
  YS02001644YS02001647 CONDUIT    676.79     0  02:02      0.86    0.40    1.00
  YS02001745YS02001748 CONDUIT    379.11     0  02:36      1.62    0.15    0.95
  YS02001748YS02001751 CONDUIT    378.97     0  02:36      1.17    0.19    1.00
  YS02001751YS02001754 CONDUIT    378.00     0  02:36      0.98    0.18    1.00
  YS02001754YS02001757 CONDUIT    378.02     0  02:36      0.48    0.15    1.00
  YS02001882YS02001884 CONDUIT     23.24     0  01:56      0.15    0.03    1.00
  YS02001884YS02001887 CONDUIT     38.28     0  01:54      0.11    0.05    1.00
  YS02001890YS02001895 CONDUIT    517.72     0  02:20      0.66    0.24    1.00
  YS02001895YS02001898 CONDUIT    517.78     0  02:32      0.66    0.90    1.00
  YS02001898YS02001901 CONDUIT    517.94     0  02:32      0.66    0.33    1.00
  YS02001901YS02001904 CONDUIT    517.75     0  02:32      0.66    0.80    1.00
  YS02001904YS02001907 CONDUIT    517.62     0  02:20      0.66    0.18    1.00
  YS02001887YS02001890 CONDUIT    540.83     0  02:17      0.69    0.93    1.00
  YS02001652YS02001649 CONDUIT    450.56     0  02:10      0.67    0.22    1.00
  YS02001655YS02001652 CONDUIT    448.69     0  02:10      1.06    0.22    1.00
  YS02001658YS02001655 CONDUIT    447.57     0  02:10      1.35    0.19    1.00
  YS02001661YS02001658 CONDUIT    475.94     0  02:18      1.72    0.19    1.00
  YS02001664YS02001661 CONDUIT    753.11     0  02:15      1.67    0.24    0.75
  YSB1154YSB6556       CONDUIT     37.15     0  01:56      0.14    0.07    0.68
  YSB1174YSB1171       CONDUIT     30.20     0  01:54      0.09    0.05    0.79
  YSB1171HS02004479    CONDUIT     66.50     0  01:56      0.54    0.04    0.63
  HS02004881HS02006253 CONDUIT    120.65     0  01:57      2.57    0.02    0.07
  YS02001793JiankangQianchi CONDUIT   1227.15     0  02:07     20.74    0.10    1.00
  YS02001757CaochengTiaoxuchi CONDUIT   2114.20     0  02:06      3.66    0.93    1.00
  WSF200WS02003060     CONDUIT    469.85     0  02:06      2.13    0.10    0.25
  1                    CONDUIT    426.40     0  02:10      2.62    0.15    0.26
  CC-Pump-1            PUMP       200.00     0  01:36              1.00
  CC-Pump-2            PUMP       200.00     0  01:36              1.00
  JK-Pump-1            PUMP       300.00     0  00:00              1.00
  JK-Pump-2            PUMP       683.00     0  00:00              1.00
  XR-Pump-1            PUMP        95.00     0  00:00              1.00
  XR-Pump-2            PUMP        95.00     0  00:00              1.00
  XR-Pump-3            PUMP        95.00     0  00:00              1.00
  XR-Pump-4            PUMP        95.00     0  00:00              1.00
  3                    WEIR       428.87     0  01:57                      0.26
  5                    WEIR       514.55     0  02:00                      0.29
  6                    WEIR       449.01     0  02:09                      0.26
  
  
  ***************************
  Flow Classification Summary
  ***************************
  
  -------------------------------------------------------------------------------------
                      Adjusted    ---------- Fraction of Time in Flow Class ---------- 
                       /Actual         Up    Down  Sub   Sup   Up    Down  Norm  Inlet 
  Conduit               Length    Dry  Dry   Dry   Crit  Crit  Crit  Crit  Ltd   Ctrl  
  -------------------------------------------------------------------------------------
  WS02003066WSF200        1.00   0.13  0.00  0.00  0.00  0.87  0.00  0.00  0.78  0.00
  WS02006287WS02006284    1.00   0.05  0.02  0.00  0.52  0.42  0.00  0.00  0.63  0.00
  WS02006284WS02006280    1.00   0.06  0.00  0.00  0.00  0.00  0.00  0.94  0.00  0.00
  WS02006280WS02006229    1.00   0.06  0.00  0.00  0.00  0.00  0.00  0.94  0.00  0.00
  WS02006229WS02006228    1.00   0.00  0.00  0.00  0.99  0.00  0.00  0.01  0.00  0.00
  WS02006256WS02006235    1.00   0.00  0.00  0.00  0.08  0.92  0.00  0.00  0.01  0.00
  WS02006253WS02006251    1.00   0.02  0.03  0.00  0.89  0.00  0.06  0.00  0.00  0.00
  WS02006252WS02006251    1.00   0.10  0.00  0.00  0.00  0.00  0.90  0.00  0.00  0.00
  WS02006251WS02006249    1.00   0.00  0.00  0.00  1.00  0.00  0.00  0.00  0.17  0.00
  WS02006249WS02006248    1.00   0.00  0.06  0.00  0.88  0.00  0.05  0.00  0.00  0.00
  WS02006248WS02006247    1.00   0.06  0.00  0.00  0.92  0.00  0.00  0.02  0.01  0.00
  WS02006247WS02006245    1.00   0.07  0.00  0.00  0.90  0.00  0.00  0.04  0.00  0.00
  WS02006245WS02006243    1.00   0.07  0.00  0.00  0.88  0.00  0.00  0.05  0.00  0.00
  WS02006243WS02006242    1.00   0.07  0.00  0.00  0.90  0.00  0.00  0.03  0.68  0.00
  WS02006242WS02006240    1.00   0.00  0.07  0.00  0.92  0.00  0.00  0.00  0.18  0.00
  WS02006240WS02006239    1.00   0.00  0.00  0.00  0.91  0.00  0.00  0.08  0.00  0.00
  WS02006239WS02006238    1.00   0.00  0.00  0.00  1.00  0.00  0.00  0.00  0.17  0.00
  WS02006238WS02006235    1.00   0.00  0.00  0.00  1.00  0.00  0.00  0.00  0.00  0.00
  WS02006235WS02006234    1.00   0.07  0.00  0.00  0.91  0.00  0.02  0.01  0.00  0.00
  WS02006234WS02006232    1.00   0.00  0.00  0.00  1.00  0.00  0.00  0.00  0.14  0.00
  WS02006232WS02006231    1.00   0.00  0.00  0.00  0.99  0.00  0.00  0.00  0.01  0.00
  WS02006231WS02006230    1.00   0.00  0.00  0.00  0.31  0.00  0.68  0.00  0.00  0.00
  WS02006230WS02006229    1.00   0.00  0.00  0.00  0.99  0.00  0.00  0.01  0.02  0.00
  WS02006228WS02006109    1.00   0.00  0.00  0.00  1.00  0.00  0.00  0.00  0.00  0.00
  WS02006116WS02004401    1.00   0.05  0.00  0.00  0.95  0.00  0.00  0.00  0.00  0.00
  WS02006115WS02006116    1.00   0.04  0.00  0.00  0.91  0.00  0.00  0.04  0.00  0.00
  WS02006113WS02006111    1.00   0.03  0.00  0.00  0.01  0.96  0.00  0.00  0.09  0.00
  WS02006112WS02006115    1.00   0.03  0.02  0.00  0.95  0.00  0.00  0.00  0.00  0.00
  WS02006111WS02006112    1.00   0.03  0.00  0.00  0.97  0.00  0.00  0.00  0.93  0.00
  WS02006110WS02006113    1.00   0.01  0.02  0.00  0.97  0.00  0.00  0.00  0.00  0.00
  WS02006109WS02006110    1.00   0.00  0.01  0.00  0.99  0.00  0.00  0.00  0.00  0.00
  WS02004411WS02004412    1.00   0.10  0.00  0.00  0.90  0.00  0.00  0.00  0.00  0.00
  WS02004401WS02004402    1.00   0.05  0.00  0.00  0.95  0.00  0.00  0.00  0.04  0.00
  WS02004413WS02003067    1.00   0.10  0.02  0.00  0.00  0.00  0.88  0.00  0.00  0.00
  WS02004412WS02004413    1.00   0.10  0.00  0.00  0.89  0.01  0.00  0.00  0.00  0.00
  WS02004410WS02004411    1.00   0.10  0.00  0.00  0.90  0.00  0.00  0.00  0.00  0.00
  WS02004409WS02004410    1.00   0.09  0.00  0.00  0.91  0.00  0.00  0.00  0.00  0.00
  WS02004407WS02004409    1.00   0.09  0.00  0.00  0.88  0.02  0.00  0.00  0.81  0.00
  WS02004406WS02004407    1.00   0.00  0.09  0.00  0.91  0.00  0.00  0.00  0.00  0.00
  WS02004405WS02004406    1.00   0.00  0.00  0.00  1.00  0.00  0.00  0.00  0.04  0.00
  WS02004404WS02004405    1.00   0.00  0.00  0.00  1.00  0.00  0.00  0.00  0.02  0.00
  WS02004403WS02004404    1.00   0.00  0.05  0.00  0.95  0.00  0.00  0.00  0.04  0.00
  WS02004402WS02004403    1.00   0.05  0.00  0.00  0.95  0.00  0.00  0.00  0.00  0.00
  WS02004139WS02001211    1.00   0.00  0.00  0.00  1.00  0.00  0.00  0.00  0.00  0.00
  WS02004138WS02004139    1.00   0.00  0.00  0.00  0.00  0.27  0.00  0.73  0.21  0.00
  WS02003067WS02003066    1.00   0.12  0.00  0.00  0.87  0.00  0.00  0.00  0.00  0.00
  WS02001213WS02003059    1.00   0.00  0.00  0.00  0.99  0.00  0.00  0.00  0.00  0.00
  WS02001212WS02001213    1.00   0.00  0.00  0.00  0.34  0.00  0.66  0.00  0.00  0.00
  WS02001211WS02001212    1.00   0.00  0.00  0.00  1.00  0.00  0.00  0.00  0.11  0.00
  WS02003072WS02003073    1.00   0.00  0.00  0.00  0.00  0.00  0.00  1.00  0.00  0.00
  WS02003069WS02003072    1.00   0.00  0.00  0.00  1.00  0.00  0.00  0.00  0.92  0.00
  WS02003060WS02003069    1.00   0.00  0.00  0.00  0.98  0.02  0.00  0.00  0.80  0.00
  WS02003059WS02003060    1.00   0.00  0.00  0.00  1.00  0.00  0.00  0.00  0.05  0.00
  HS02004901HS02004770    1.00   0.05  0.00  0.00  0.95  0.00  0.00  0.00  0.00  0.00
  HS02004876HS02004881    1.00   0.01  0.00  0.00  0.80  0.19  0.00  0.00  0.00  0.00
  HS02004870HS02004876    1.00   0.00  0.00  0.00  0.99  0.00  0.00  0.00  0.95  0.00
  HS02004842HS02004848    1.00   0.00  0.05  0.00  0.94  0.00  0.00  0.00  0.57  0.00
  HS02004837HS02004842    1.00   0.00  0.00  0.00  1.00  0.00  0.00  0.00  0.11  0.00
  HS02004830HS02004837    1.00   0.00  0.00  0.00  1.00  0.00  0.00  0.00  0.99  0.00
  HS02004824HS02004830    1.00   0.00  0.00  0.00  1.00  0.00  0.00  0.00  0.01  0.00
  HS02004817HS02004824    1.00   0.00  0.00  0.00  1.00  0.00  0.00  0.00  0.95  0.00
  HS02004770HS02004777    1.00   0.00  0.05  0.00  0.95  0.00  0.00  0.00  0.02  0.00
  HS02004799HS02004480    1.00   0.00  0.02  0.00  0.93  0.00  0.05  0.00  0.00  0.00
  HS02004792HS02004799    1.00   0.00  0.00  0.00  0.99  0.01  0.00  0.00  0.98  0.00
  HS02004788HS02004792    1.00   0.00  0.00  0.00  0.99  0.01  0.00  0.00  0.98  0.00
  HS02004785HS02004788    1.00   0.00  0.00  0.00  1.00  0.00  0.00  0.00  0.00  0.00
  HS02004777HS02004785    1.00   0.00  0.00  0.00  1.00  0.00  0.00  0.00  0.11  0.00
  HS02004480HS02004478    1.00   0.06  0.00  0.00  0.58  0.00  0.00  0.37  0.00  0.00
  HS02004479HS02004480    1.00   0.02  0.00  0.00  0.98  0.00  0.00  0.00  0.11  0.00
  HS02004862HS02004870    1.00   0.00  0.00  0.00  1.00  0.00  0.00  0.00  0.03  0.00
  HS02004848HS02004852    1.00   0.06  0.00  0.00  0.94  0.00  0.00  0.00  0.78  0.00
  HS02004856HS02004862    1.00   0.00  0.07  0.00  0.93  0.00  0.00  0.00  0.84  0.00
  HS02004852HS02004856    1.00   0.05  0.00  0.00  0.94  0.00  0.00  0.00  0.79  0.00
  HS02004802HS02004478    1.00   0.06  0.00  0.00  0.94  0.00  0.00  0.00  0.02  0.00
  HS02004478WS02006287    1.00   0.07  0.00  0.00  0.63  0.30  0.00  0.00  0.64  0.00
  HS02004817HS02004807    1.00   0.00  0.06  0.00  0.94  0.00  0.00  0.00  0.01  0.00
  HS02004807HS02004802    1.00   0.06  0.00  0.00  0.94  0.00  0.00  0.01  0.00  0.00
  YS02001759YS02001757    1.00   0.00  0.00  0.00  1.00  0.00  0.00  0.00  0.15  0.00
  YS02001762YS02001759    1.00   0.00  0.00  0.00  1.00  0.00  0.00  0.00  0.02  0.00
  YS02001765YS02001762    1.00   0.00  0.00  0.00  1.00  0.00  0.00  0.00  0.13  0.00
  YS02001770YS02001767    1.00   0.00  0.00  0.00  1.00  0.00  0.00  0.00  0.00  0.00
  YS02001774YS02001770    1.00   0.00  0.06  0.00  0.94  0.00  0.00  0.00  0.02  0.00
  YS02001779YS02001774    1.00   0.00  0.00  0.00  1.00  0.00  0.00  0.00  0.17  0.00
  YS02001649YS02001757    1.00   0.00  0.00  0.00  1.00  0.00  0.00  0.00  0.15  0.00
  YS02001767YS02001765    1.00   0.00  0.00  0.00  1.00  0.00  0.00  0.00  0.00  0.00
  YS02006561YS02001783    1.00   0.08  0.00  0.00  0.31  0.62  0.00  0.00  0.45  0.00
  YS02001783YS02001784    1.00   0.00  0.08  0.00  0.92  0.00  0.00  0.00  0.00  0.00
  YS02001784YS02001785    1.00   0.00  0.00  0.00  1.00  0.00  0.00  0.00  0.16  0.00
  YS02001788YS02001790    1.00   0.00  0.00  0.00  0.27  0.73  0.00  0.00  0.44  0.00
  YS02001790YS02001791    1.00   0.00  0.00  0.00  0.15  0.85  0.00  0.00  0.58  0.00
  YS02001791YS02001793    1.00   0.00  0.00  0.00  0.15  0.84  0.00  0.00  0.01  0.00
  YS02001910YS02001907    1.00   0.00  0.00  0.00  0.99  0.00  0.00  0.01  0.12  0.00
  YS02001786YS02001788    1.00   0.00  0.00  0.00  0.34  0.66  0.00  0.00  0.00  0.00
  YS02001915YS02001910    1.00   0.00  0.00  0.00  0.99  0.01  0.00  0.00  0.13  0.00
  YS02001918YS02001915    1.00   0.00  0.00  0.00  0.99  0.01  0.00  0.00  0.53  0.00
  YS02001923YS02001920    1.00   0.00  0.00  0.00  1.00  0.00  0.00  0.00  0.77  0.00
  YS02001926YS02001923    1.00   0.00  0.03  0.00  0.24  0.00  0.72  0.00  0.00  0.00
  YS02001929YS02001926    1.00   0.00  0.05  0.00  0.95  0.00  0.00  0.00  0.69  0.00
  YS02001920YS02001918    1.00   0.00  0.00  0.00  1.00  0.00  0.00  0.00  0.00  0.00
  YS02001629YS02163301    1.00   0.06  0.00  0.00  0.93  0.00  0.00  0.00  0.00  0.00
  YS02001619YS02001622    1.00   0.05  0.00  0.00  0.95  0.00  0.00  0.00  0.00  0.00
  YS02001622YS02001625    1.00   0.06  0.00  0.00  0.94  0.00  0.00  0.00  0.03  0.00
  YS02001625YS02001629    1.00   0.06  0.02  0.00  0.90  0.00  0.02  0.00  0.00  0.00
  YS02163301YS02001633    1.00   0.00  0.06  0.00  0.94  0.00  0.00  0.00  0.00  0.00
  YS02163601YS02164001    1.00   0.00  0.04  0.00  0.96  0.00  0.00  0.00  0.00  0.00
  YS02164001YS02001641    1.00   0.01  0.03  0.00  0.96  0.00  0.00  0.00  0.05  0.00
  YS02001641YS02001644    1.00   0.00  0.00  0.00  1.00  0.00  0.00  0.00  0.00  0.00
  YS02001647YS02001649    1.00   0.00  0.07  0.00  0.93  0.00  0.00  0.00  0.01  0.00
  YS02006553YS02006556    1.00   0.01  0.00  0.00  0.99  0.00  0.00  0.00  0.03  0.00
  YS02006556YS02006558    1.00   0.00  0.00  0.00  1.00  0.00  0.00  0.00  0.00  0.00
  YSB6556YSB1171          1.00   0.02  0.04  0.00  0.95  0.00  0.00  0.00  0.00  0.00
  YS02001907YS02006553    1.00   0.00  0.01  0.00  0.99  0.00  0.00  0.00  0.00  0.00
  YS02006558YS02006561    1.00   0.08  0.00  0.00  0.23  0.69  0.00  0.00  0.48  0.00
  YS02001633YS02163601    1.00   0.00  0.01  0.00  0.99  0.00  0.00  0.00  0.14  0.00
  YS02001644YS02001647    1.00   0.00  0.07  0.00  0.93  0.00  0.00  0.00  0.00  0.00
  YS02001745YS02001748    1.00   0.00  0.00  0.00  0.87  0.00  0.00  0.13  0.01  0.00
  YS02001748YS02001751    1.00   0.00  0.00  0.00  0.95  0.05  0.00  0.00  0.14  0.00
  YS02001751YS02001754    1.00   0.00  0.00  0.00  0.91  0.00  0.00  0.08  0.02  0.00
  YS02001754YS02001757    1.00   0.00  0.00  0.00  1.00  0.00  0.00  0.00  0.17  0.00
  YS02001882YS02001884    1.00   0.06  0.00  0.00  0.94  0.00  0.00  0.00  0.00  0.00
  YS02001884YS02001887    1.00   0.03  0.02  0.00  0.95  0.00  0.00  0.00  0.00  0.00
  YS02001890YS02001895    1.00   0.00  0.06  0.00  0.93  0.00  0.00  0.00  0.00  0.00
  YS02001895YS02001898    1.00   0.07  0.00  0.00  0.92  0.00  0.01  0.00  0.00  0.00
  YS02001898YS02001901    1.00   0.07  0.00  0.00  0.93  0.00  0.00  0.00  0.01  0.00
  YS02001901YS02001904    1.00   0.07  0.00  0.00  0.93  0.00  0.00  0.00  0.00  0.00
  YS02001904YS02001907    1.00   0.00  0.07  0.00  0.93  0.00  0.00  0.00  0.00  0.00
  YS02001887YS02001890    1.00   0.00  0.00  0.00  0.98  0.00  0.01  0.00  0.00  0.00
  YS02001652YS02001649    1.00   0.00  0.00  0.00  1.00  0.00  0.00  0.00  0.15  0.00
  YS02001655YS02001652    1.00   0.00  0.00  0.00  0.92  0.00  0.00  0.08  0.02  0.00
  YS02001658YS02001655    1.00   0.00  0.06  0.00  0.90  0.04  0.00  0.00  0.02  0.00
  YS02001661YS02001658    1.00   0.06  0.00  0.00  0.87  0.07  0.00  0.00  0.01  0.00
  YS02001664YS02001661    1.00   0.05  0.00  0.00  0.88  0.06  0.00  0.00  0.13  0.00
  YSB1154YSB6556          1.00   0.05  0.00  0.00  0.95  0.00  0.00  0.00  0.01  0.00
  YSB1174YSB1171          1.00   0.02  0.02  0.00  0.96  0.00  0.00  0.00  0.00  0.00
  YSB1171HS02004479       1.00   0.02  0.00  0.00  0.98  0.00  0.00  0.01  0.10  0.00
  HS02004881HS02006253    1.00   0.03  0.00  0.00  0.00  0.00  0.00  0.97  0.00  0.00
  YS02001793JiankangQianchi    1.00   0.00  0.00  0.00  0.23  0.77  0.00  0.00  0.07  0.00
  YS02001757CaochengTiaoxuchi    1.00   0.00  0.10  0.00  0.82  0.08  0.00  0.00  0.00  0.00
  WSF200WS02003060        1.00   0.00  0.13  0.00  0.00  0.87  0.00  0.00  0.59  0.00
  1                       1.00   0.00  0.00  0.00  0.00  1.00  0.00  0.00  0.21  0.00
  
  
  *************************
  Conduit Surcharge Summary
  *************************
  
  ----------------------------------------------------------------------------
                                                           Hours        Hours 
                         --------- Hours Full --------   Above Full   Capacity
  Conduit                Both Ends  Upstream  Dnstream   Normal Flow   Limited
  ----------------------------------------------------------------------------
  WS02006229WS02006228        0.40      0.44      0.40      1.14         0.40
  WS02006256WS02006235        0.01      0.01      6.60      6.58         0.01
  WS02006252WS02006251        6.40      6.40      6.41      6.41         0.01
  WS02006235WS02006234        0.01      0.01      0.01      0.36         0.01
  WS02006231WS02006230        0.01      0.01      0.01      0.53         0.01
  WS02006230WS02006229        0.66      0.66      0.67      3.79         0.01
  WS02006228WS02006109        0.42      0.54      0.42      1.61         0.42
  WS02006111WS02006112        0.01      0.01      1.39      0.01         0.01
  WS02006110WS02006113        0.01      0.01      0.48      0.01         0.01
  WS02006109WS02006110        0.01      0.01      0.54      0.01         0.01
  WS02004404WS02004405        0.01      0.01      0.01      2.24         0.01
  HS02004876HS02004881        0.01      0.01      0.01      0.34         0.01
  HS02004785HS02004788        0.01      0.01      0.01      0.25         0.01
  HS02004480HS02004478        0.01      0.01      0.01      0.93         0.01
  YS02001759YS02001757        6.30      6.30      6.33      0.01         0.01
  YS02001762YS02001759        6.29      6.29      6.30      0.01         0.01
  YS02001765YS02001762        6.28      6.28      6.29      0.01         0.01
  YS02001770YS02001767        6.26      6.26      6.26      0.49         1.10
  YS02001774YS02001770        6.25      6.25      6.29      0.01         0.01
  YS02001779YS02001774        6.21      6.21      6.29      0.01         0.01
  YS02001649YS02001757        6.28      6.28      6.33      0.01         0.01
  YS02001767YS02001765        6.26      6.26      6.28      0.01         0.01
  YS02006561YS02001783        1.39      1.39      1.68      0.01         0.01
  YS02001783YS02001784        1.64      1.68      1.64      1.97         1.64
  YS02001784YS02001785        1.51      1.64      1.51      2.73         1.51
  YS02001788YS02001790        0.86      0.86      0.96      0.01         0.01
  YS02001790YS02001791        0.96      0.96      0.96      1.62         0.95
  YS02001791YS02001793        0.96      0.96      1.13      0.01         0.01
  YS02001910YS02001907        1.72      1.72      2.23      0.01         0.01
  YS02001786YS02001788        0.86      1.51      0.86      2.35         0.86
  YS02001915YS02001910        1.56      1.56      1.72      0.01         0.01
  YS02001918YS02001915        1.38      1.38      1.56      0.01         0.01
  YS02001923YS02001920        1.23      1.23      1.41      0.01         0.01
  YS02001920YS02001918        1.38      1.38      1.41      0.01         0.01
  YS02001629YS02163301        6.25      6.25      6.25      0.01         0.01
  YS02001619YS02001622        6.16      6.16      6.17      0.01         0.01
  YS02001622YS02001625        6.17      6.17      6.24      0.01         0.01
  YS02001625YS02001629        6.16      6.16      6.24      0.01         0.01
  YS02163301YS02001633        6.25      6.25      6.27      0.01         0.01
  YS02163601YS02164001        6.27      6.27      6.29      0.01         0.01
  YS02164001YS02001641        6.27      6.27      6.27      0.01         0.03
  YS02001641YS02001644        6.27      6.27      6.27      2.14         2.00
  YS02001647YS02001649        6.23      6.23      6.28      0.01         0.01
  YS02006553YS02006556        1.91      1.91      2.29      0.01         0.01
  YS02006556YS02006558        2.00      2.00      2.35      0.01         0.01
  YS02001907YS02006553        2.74      2.74      2.94      0.01         0.01
  YS02006558YS02006561        1.50      1.88      1.50      2.60         1.50
  YS02001633YS02163601        6.27      6.27      6.29      0.01         0.01
  YS02001644YS02001647        6.23      6.23      6.27      0.01         0.01
  YS02001745YS02001748        0.01      0.01      5.26      0.01         0.01
  YS02001748YS02001751        5.61      5.61      6.15      0.01         0.01
  YS02001751YS02001754        6.15      6.15      6.21      0.01         0.01
  YS02001754YS02001757        6.22      6.22      6.33      0.01         0.01
  YS02001882YS02001884        1.58      1.58      1.60      0.01         0.01
  YS02001884YS02001887        1.64      1.64      1.66      0.01         0.01
  YS02001890YS02001895        1.55      1.55      1.74      0.01         0.01
  YS02001895YS02001898        1.54      1.54      1.55      0.01         0.01
  YS02001898YS02001901        1.56      1.56      1.63      0.01         0.01
  YS02001901YS02001904        1.61      1.61      1.63      0.01         0.01
  YS02001904YS02001907        1.61      1.61      2.31      0.01         0.01
  YS02001887YS02001890        1.68      1.68      1.71      0.01         0.01
  YS02001652YS02001649        6.23      6.23      6.28      0.01         0.01
  YS02001655YS02001652        6.16      6.16      6.22      0.01         0.01
  YS02001658YS02001655        5.34      5.34      6.16      0.01         0.01
  YS02001661YS02001658        0.19      0.19      5.34      0.01         0.01
  YS02001664YS02001661        0.01      0.01      1.21      0.01         0.01
  YS02001793JiankangQianchi        1.08      1.08      1.80      0.01         0.01
  YS02001757CaochengTiaoxuchi        5.44      5.44      6.33      0.01         0.01
  
  
  ***************
  Pumping Summary
  ***************
  
  ---------------------------------------------------------------------------------------------------------
                                                  Min       Avg       Max     Total     Power    % Time Off
                        Percent   Number of      Flow      Flow      Flow    Volume     Usage    Pump Curve
  Pump                 Utilized   Start-Ups       LPS       LPS       LPS  10^6 ltr     Kw-hr    Low   High
  ---------------------------------------------------------------------------------------------------------
  CC-Pump-1               80.68           1      0.00    198.04    200.00     4.622      8.37    0.0    6.6
  CC-Pump-2               80.68           1      0.00    198.04    200.00     4.622      8.37    0.0    6.6
  JK-Pump-1              100.00           1      0.00    229.48    300.00     5.675    105.47    0.0    0.0
  JK-Pump-2              100.00           1      0.00    387.68    683.00     9.269    156.65    0.0   97.9
  XR-Pump-1              100.00           1      0.00     95.00     95.00     2.736     27.14    0.0    0.0
  XR-Pump-2              100.00           1      0.00     95.00     95.00     2.736     27.14    0.0    0.0
  XR-Pump-3              100.00           1      0.00     95.00     95.00     2.736     27.14    0.0    0.0
  XR-Pump-4              100.00           1      0.00     95.00     95.00     2.736     27.14    0.0    0.0
  
  
  ***************************
  Link Pollutant Load Summary
  ***************************
  
  ------------------------------------------------------------------------------------------
                                 COD            SS            TN            TP         NH4-N
  Link                            kg            kg            kg            kg            kg
  ------------------------------------------------------------------------------------------
  WS02003066WSF200           376.006       718.539        11.375         1.090         6.180
  WS02006287WS02006284       370.454       711.262        11.375         1.097         6.199
  WS02006284WS02006280       370.977       712.106        11.424         1.103         6.230
  WS02006280WS02006229       370.961       712.082        11.421         1.103         6.228
  WS02006229WS02006228       362.990       692.902        11.155         1.073         6.080
  WS02006256WS02006235       261.002       503.905         5.039         0.364         2.461
  WS02006253WS02006251        63.124       126.332         1.317         0.095         0.641
  WS02006252WS02006251       848.825      1591.420        16.520         1.129         7.956
  WS02006251WS02006249       158.032       297.745         3.095         0.213         1.493
  WS02006249WS02006248       157.729       297.191         3.088         0.212         1.489
  WS02006248WS02006247       157.584       296.946         3.084         0.212         1.487
  WS02006247WS02006245       157.348       296.522         3.079         0.211         1.485
  WS02006245WS02006243       157.060       296.004         3.073         0.211         1.482
  WS02006243WS02006242       156.805       295.568         3.068         0.211         1.479
  WS02006242WS02006240       156.378       294.805         3.058         0.210         1.474
  WS02006240WS02006239       156.107       294.317         3.053         0.210         1.472
  WS02006239WS02006238       155.782       293.733         3.046         0.209         1.468
  WS02006238WS02006235       155.746       293.675         3.045         0.209         1.468
  WS02006235WS02006234        58.026       113.671         1.222         0.095         0.607
  WS02006234WS02006232        58.764       115.144         1.239         0.096         0.616
  WS02006232WS02006231        59.784       117.173         1.261         0.098         0.627
  WS02006231WS02006230        60.384       118.363         1.276         0.099         0.635
  WS02006230WS02006229        62.596       122.733         1.327         0.103         0.661
  WS02006228WS02006109       362.421       691.984        11.105         1.067         6.049
  WS02006116WS02004401       382.058       728.246        11.886         1.153         6.497
  WS02006115WS02006116       382.486       728.910        11.933         1.159         6.526
  WS02006113WS02006111       369.701       703.636        11.814         1.156         6.492
  WS02006112WS02006115       383.026       729.783        11.978         1.164         6.554
  WS02006111WS02006112       369.563       703.440        11.796         1.154         6.481
  WS02006110WS02006113       369.834       703.840        11.827         1.158         6.500
  WS02006109WS02006110       370.511       704.917        11.888         1.165         6.539
  WS02004411WS02004412       377.621       721.061        11.519         1.108         6.270
  WS02004401WS02004402       381.341       727.079        11.828         1.146         6.461
  WS02004413WS02003067       376.470       719.326        11.408         1.094         6.200
  WS02004412WS02004413       377.069       720.180        11.469         1.102         6.239
  WS02004410WS02004411       377.997       721.667        11.553         1.112         6.291
  WS02004409WS02004410       378.278       722.100        11.581         1.116         6.309
  WS02004407WS02004409       378.532       722.517        11.603         1.118         6.322
  WS02004406WS02004407       378.645       722.715        11.612         1.119         6.328
  WS02004405WS02004406       380.183       725.186        11.745         1.136         6.410
  WS02004404WS02004405       380.769       726.167        11.790         1.141         6.438
  WS02004403WS02004404       379.986       724.880        11.716         1.132         6.392
  WS02004402WS02004403       380.647       725.951        11.770         1.138         6.425
  WS02004139WS02001211        56.183        98.250         3.753         0.448         2.286
  WS02004138WS02004139      1320.855      2223.486       100.976        12.214        61.919
  WS02003067WS02003066       376.008       718.520        11.378         1.090         6.182
  WS02001213WS02003059        50.785        91.450         2.862         0.332         1.715
  WS02001212WS02001213        53.095        94.223         3.276         0.386         1.981
  WS02001211WS02001212        54.274        95.612         3.487         0.414         2.116
  WS02003072WS02003073       478.368       873.962        22.838         2.544        13.404
  WS02003069WS02003072       479.703       875.955        22.986         2.563        13.498
  WS02003060WS02003069       478.005       873.237        22.822         2.542        13.395
  WS02003059WS02003060        53.939        98.268         2.796         0.319         1.659
  HS02004901HS02004770        15.671        30.626         0.297         0.022         0.140
  HS02004876HS02004881        53.719       107.338         1.163         0.085         0.570
  HS02004870HS02004876        40.727        81.242         0.926         0.068         0.457
  HS02004842HS02004848         7.748        14.978         0.160         0.011         0.074
  HS02004837HS02004842        12.379        22.334         0.630         0.070         0.369
  HS02004830HS02004837        75.995       134.023         4.827         0.571         2.928
  HS02004824HS02004830        76.780       135.290         4.901         0.580         2.974
  HS02004817HS02004824       107.398       197.360         5.522         0.619         3.276
  HS02004770HS02004777        59.677       118.082         1.224         0.084         0.567
  HS02004799HS02004480       193.064       372.491         4.884         0.426         2.508
  HS02004792HS02004799       175.572       336.651         4.603         0.411         2.381
  HS02004788HS02004792        97.108       186.576         2.972         0.278         1.588
  HS02004785HS02004788        61.130       120.404         1.375         0.103         0.662
  HS02004777HS02004785        60.437       119.290         1.312         0.095         0.623
  HS02004480HS02004478       242.439       470.797         5.719         0.486         2.903
  HS02004479HS02004480        52.972       104.084         1.147         0.099         0.589
  HS02004862HS02004870        30.812        60.600         0.730         0.057         0.363
  HS02004848HS02004852        12.612        24.658         0.257         0.018         0.119
  HS02004856HS02004862        21.035        41.962         0.419         0.028         0.197
  HS02004852HS02004856        12.622        24.676         0.257         0.018         0.119
  HS02004802HS02004478       128.915       241.921         5.721         0.619         3.336
  HS02004478WS02006287       370.627       711.534        11.392         1.099         6.210
  HS02004817HS02004807       106.093       195.288         5.389         0.603         3.193
  HS02004807HS02004802       129.116       242.232         5.754         0.623         3.358
  YS02001759YS02001757       515.356       968.130        10.096         0.700         4.918
  YS02001762YS02001759       196.064       366.778         4.136         0.288         2.042
  YS02001765YS02001762       196.193       367.616         4.159         0.290         2.056
  YS02001770YS02001767       195.164       367.403         3.932         0.258         1.907
  YS02001774YS02001770       221.808       433.726         4.294         0.283         2.074
  YS02001779YS02001774       220.448       431.065         4.347         0.293         2.115
  YS02001649YS02001757       385.657       699.472         7.629         0.542         3.644
  YS02001767YS02001765       196.736       369.139         4.188         0.292         2.073
  YS02006561YS02001783      1229.365      2307.324        25.340         1.878        12.559
  YS02001783YS02001784      1229.286      2307.230        25.336         1.878        12.557
  YS02001784YS02001785      1236.837      2319.372        26.065         1.969        13.013
  YS02001788YS02001790      1237.546      2320.592        26.140         1.979        13.060
  YS02001790YS02001791      1238.677      2322.527        26.242         1.991        13.124
  YS02001791YS02001793      1238.732      2322.674        26.240         1.991        13.122
  YS02001910YS02001907       469.524       874.238        10.921         0.820         5.553
  YS02001786YS02001788      1237.108      2319.871        26.094         1.973        13.031
  YS02001915YS02001910       469.562       874.281        10.879         0.814         5.524
  YS02001918YS02001915       226.827       404.508         5.919         0.524         3.150
  YS02001923YS02001920       203.937       366.812         3.893         0.274         1.890
  YS02001926YS02001923       202.639       364.644         3.810         0.264         1.840
  YS02001929YS02001926       202.203       363.906         3.772         0.260         1.816
  YS02001920YS02001918       224.491       399.800         5.847         0.518         3.111
  YS02001629YS02163301        94.018       167.008         1.989         0.129         0.929
  YS02001619YS02001622       212.720       392.309         4.331         0.285         2.028
  YS02001622YS02001625       211.634       390.603         4.305         0.283         2.016
  YS02001625YS02001629        94.107       167.150         1.992         0.129         0.930
  YS02163301YS02001633        95.152       169.033         2.006         0.131         0.938
  YS02163601YS02164001       470.276       858.055         9.095         0.651         4.363
  YS02164001YS02001641       470.167       857.870         9.083         0.650         4.355
  YS02001641YS02001644       470.986       859.226         9.092         0.650         4.359
  YS02001647YS02001649       422.177       769.664         8.305         0.588         3.955
  YS02006553YS02006556       830.566      1548.462        17.465         1.323         8.741
  YS02006556YS02006558       830.752      1548.814        17.433         1.318         8.719
  YSB6556YSB1171              30.693        60.496         0.608         0.050         0.305
  YS02001907YS02006553       830.593      1548.515        17.487         1.327         8.756
  YS02006558YS02006561      1229.334      2307.243        25.339         1.878        12.559
  YS02001633YS02163601       470.843       858.923         9.071         0.647         4.344
  YS02001644YS02001647       429.268       783.095         8.428         0.597         4.014
  YS02001745YS02001748       292.961       555.065         5.807         0.360         2.787
  YS02001748YS02001751       292.494       554.268         5.820         0.363         2.797
  YS02001751YS02001754       291.607       552.823         5.805         0.362         2.791
  YS02001754YS02001757       292.476       554.148         5.973         0.385         2.900
  YS02001882YS02001884         3.820         6.745         0.074         0.006         0.036
  YS02001884YS02001887         7.306        13.142         0.139         0.011         0.069
  YS02001890YS02001895       550.969      1044.862        10.132         0.764         4.941
  YS02001895YS02001898       550.868      1044.773        10.126         0.763         4.938
  YS02001898YS02001901       550.684      1044.439        10.122         0.763         4.936
  YS02001901YS02001904       550.564      1044.294        10.130         0.764         4.941
  YS02001904YS02001907       550.870      1044.774        10.185         0.771         4.977
  YS02001887YS02001890       556.449      1055.309        10.268         0.776         5.014
  YS02001652YS02001649       249.690       468.329         4.991         0.360         2.342
  YS02001655YS02001652       250.470       469.536         5.012         0.361         2.352
  YS02001658YS02001655       250.283       469.223         4.932         0.350         2.298
  YS02001661YS02001658       251.181       470.727         4.952         0.352         2.308
  YS02001664YS02001661       263.940       491.432         5.245         0.371         2.442
  YSB1154YSB6556              30.273        59.824         0.561         0.044         0.276
  YSB1174YSB1171              20.762        41.155         0.408         0.033         0.202
  YSB1171HS02004479           52.903       103.962         1.151         0.099         0.592
  HS02004881HS02006253        60.322       120.761         1.287         0.093         0.630
  YS02001793JiankangQianchi      1239.075      2323.431        26.243         1.991        13.124
  YS02001757CaochengTiaoxuchi      1033.847      1919.147        20.434         1.398         9.858
  WSF200WS02003060           375.862       718.270        11.368         1.089         6.176
  1                          490.480       892.985        24.058         2.697        14.169
  CC-Pump-1                  424.444       795.763         8.261         0.564         3.978
  CC-Pump-2                  424.444       795.763         8.261         0.564         3.978
  JK-Pump-1                  275.445       531.641         5.320         0.384         2.598
  JK-Pump-2                  627.098      1210.369        12.113         0.874         5.915
  XR-Pump-1                  330.521       556.380        25.269         3.056        15.495
  XR-Pump-2                  330.521       556.380        25.269         3.056        15.495
  XR-Pump-3                  330.521       556.380        25.269         3.056        15.495
  XR-Pump-4                  330.521       556.380        25.269         3.056        15.495
  3                          754.168      1420.371        14.790         1.017         7.135
  5                          423.667       814.982         8.292         0.596         4.042
  6                         1378.942      2324.793       104.911        12.684        64.318
  

  Analysis begun on:  Thu Jul  8 15:19:21 2021
  Analysis ended on:  Thu Jul  8 15:19:23 2021
  Total elapsed time: 00:00:02