
  EPA STORM WATER MANAGEMENT MODEL - VERSION 5.1 (Build 5.3.0.dev0)
  --------------------------------------------------------------

  WARNING 04: minimum elevation drop used for Conduit WS02004404WS02004405
  WARNING 03: negative offset ignored for Link YS02001904YS02001907
  
  *********************************************************
  NOTE: The summary statistics displayed in this report are
  based on results found at every computational time step,  
  not just on results from each reporting time step.
  *********************************************************
  
  ****************
  Analysis Options
  ****************
  Flow Units ............... LPS
  Process Models:
    Rainfall/Runoff ........ YES
    RDII ................... NO
    Snowmelt ............... NO
    Groundwater ............ NO
    Flow Routing ........... YES
    Ponding Allowed ........ NO
    Water Quality .......... YES
  Infiltration Method ...... HORTON
  Flow Routing Method ...... DYNWAVE
  Surcharge Method ......... EXTRAN
  Starting Date ............ 08/28/2015 08:00:00
  Ending Date .............. 08/28/2015 16:00:00
  Antecedent Dry Days ...... 8.0
  Report Time Step ......... 00:01:00
  Wet Time Step ............ 00:01:00
  Dry Time Step ............ 00:01:00
  Routing Time Step ........ 5.00 sec
  Variable Time Step ....... YES
  Maximum Trials ........... 8
  Number of Threads ........ 4
  Head Tolerance ........... 0.001500 m
  
  
  **************************        Volume         Depth
  Runoff Quantity Continuity     hectare-m            mm
  **************************     ---------       -------
  Total Precipitation ......        11.349        24.848
  Evaporation Loss .........         0.000         0.000
  Infiltration Loss ........         1.430         3.131
  Surface Runoff ...........         8.719        19.089
  Final Storage ............         1.202         2.632
  Continuity Error (%) .....        -0.015
  
  
  **************************           COD            SS            TN            TP         NH4-N
  Runoff Quality Continuity             kg            kg            kg            kg            kg
  **************************    ----------    ----------    ----------    ----------    ----------
  Initial Buildup ..........     41378.656     70582.865      1804.177       168.684      1032.807
  Surface Buildup ..........        49.722       112.641         2.739         0.240         1.522
  Wet Deposition ...........         0.000         0.000         0.000         0.000         0.000
  Sweeping Removal .........         0.000         0.000         0.000         0.000         0.000
  Infiltration Loss ........       173.869       341.713         3.473         0.253         1.679
  BMP Removal ..............         0.000         0.000         0.000         0.000         0.000
  Surface Runoff ...........     10450.791     20659.193       205.518        14.613        98.811
  Remaining Buildup ........     30799.362     49686.048      1597.830       154.051       933.793
  Continuity Error (%) .....         0.011         0.012         0.005         0.004         0.004
  
  
  **************************        Volume        Volume
  Flow Routing Continuity        hectare-m      10^6 ltr
  **************************     ---------     ---------
  Dry Weather Inflow .......         0.630         6.296
  Wet Weather Inflow .......         8.718        87.179
  Groundwater Inflow .......         0.000         0.000
  RDII Inflow ..............         0.000         0.000
  External Inflow ..........         0.105         1.045
  External Outflow .........         1.806        18.062
  Flooding Loss ............         7.123        71.226
  Evaporation Loss .........         0.000         0.000
  Exfiltration Loss ........         0.000         0.000
  Initial Stored Volume ....         0.076         0.761
  Final Stored Volume ......         0.603         6.031
  Continuity Error (%) .....        -0.041
  
  
  **************************           COD            SS            TN            TP         NH4-N
  Quality Routing Continuity            kg            kg            kg            kg            kg
  **************************    ----------    ----------    ----------    ----------    ----------
  Dry Weather Inflow .......      1573.993      2518.389       151.103        18.888        94.440
  Wet Weather Inflow .......     10450.670     20659.208       205.513        14.613        98.809
  Groundwater Inflow .......         0.000         0.000         0.000         0.000         0.000
  RDII Inflow ..............         0.000         0.000         0.000         0.000         0.000
  External Inflow ..........       187.321       299.713        17.983         2.248        11.239
  External Outflow .........      2207.567      4125.251        97.469        10.568        56.484
  Flooding Loss ............      9161.724     17829.599       247.918        22.306       131.718
  Exfiltration Loss ........         0.000         0.000         0.000         0.000         0.000
  Mass Reacted .............         0.000         0.000         0.000         0.000         0.000
  Initial Stored Mass ......         0.000         0.000         0.000         0.000         0.000
  Final Stored Mass ........       660.698      1224.474        23.042         2.305        12.904
  Continuity Error (%) .....         1.490         1.269         1.647         1.594         1.654
  
  
  *************************
  Highest Continuity Errors
  *************************
  Node YS02001884 (9.52%)
  Node HS02004842 (7.50%)
  Node WS02003059 (3.30%)
  Node HS02004817 (1.48%)
  Node YSB1171 (1.31%)
  
  
  ***************************
  Time-Step Critical Elements
  ***************************
  Link YS02001793JiankangQianchi (35.73%)
  Link WS02006280WS02006229 (32.64%)
  Link YS02006556YS02006558 (5.79%)
  Link WS02006256WS02006235 (5.16%)
  Link YS02001661YS02001658 (3.32%)
  
  
  ********************************
  Highest Flow Instability Indexes
  ********************************
  Link WS02006113WS02006111 (27)
  Link YS02006558YS02006561 (18)
  Link WS02006111WS02006112 (12)
  Link YS02006556YS02006558 (11)
  Link YS02001882YS02001884 (11)
  
  
  *************************
  Routing Time Step Summary
  *************************
  Minimum Time Step           :     0.50 sec
  Average Time Step           :     2.03 sec
  Maximum Time Step           :     5.00 sec
  Percent in Steady State     :     0.00
  Average Iterations per Step :     2.67
  Percent Not Converging      :     6.72
  
  
  ***************************
  Subcatchment Runoff Summary
  ***************************
  
  ------------------------------------------------------------------------------------------------------------------------------
                            Total      Total      Total      Total     Imperv       Perv      Total       Total     Peak  Runoff
                           Precip      Runon       Evap      Infil     Runoff     Runoff     Runoff      Runoff   Runoff   Coeff
  Subcatchment                 mm         mm         mm         mm         mm         mm         mm    10^6 ltr      LPS
  ------------------------------------------------------------------------------------------------------------------------------
  sub0                      24.85       0.00       0.00       0.73      23.07       1.01      24.08        0.02     5.41   0.969
  sub1                      24.85       0.00       0.00       1.27      22.02       1.47      23.49        0.16    39.27   0.945
  sub2                      24.85       0.00       0.00       5.59      15.57       3.60      19.17        0.18    40.88   0.771
  sub3                      24.85       0.00       0.00       5.98      15.53       3.22      18.75        0.42    91.35   0.754
  sub4                      24.85       0.00       0.00       1.43      21.86       1.31      23.17        0.48   105.35   0.932
  sub5                      24.85       0.00       0.00       0.77      23.01       0.97      23.98        0.27    67.96   0.965
  sub7                      24.85       0.00       0.00       0.98      22.55       1.26      23.81        0.08    21.21   0.958
  sub8                      24.85       0.00       0.00       0.99      22.54       1.25      23.79        0.15    39.43   0.957
  sub9                      24.85       0.00       0.00       0.99      22.54       1.24      23.78        0.11    29.56   0.957
  sub10                     24.85       0.00       0.00       0.89      22.77       1.10      23.88        0.26    66.66   0.961
  sub11                     24.85       0.00       0.00       0.87      22.79       1.12      23.91        0.28    72.38   0.962
  sub12                     24.85       0.00       0.00       1.41      21.57       1.82      23.39        0.20    56.11   0.941
  sub14                     24.85       0.00       0.00       1.00      22.54       1.24      23.78        0.23    58.29   0.957
  sub15                     24.85       0.00       0.00       3.97      17.33       3.49      20.82        0.36    89.56   0.838
  sub16                     24.85       0.00       0.00       4.09      16.61       4.11      20.71        0.22    57.88   0.834
  sub17                     24.85       0.00       0.00       3.99      16.86       3.96      20.81        0.18    47.27   0.838
  sub22                     24.85       0.00       0.00       6.00      14.12       4.68      18.81        1.19   292.68   0.757
  sub23                     24.85       0.00       0.00       4.90      15.61       4.29      19.90        0.95   241.64   0.801
  sub60                     24.85       0.00       0.00       2.16      19.71       0.82      20.53        6.22   832.71   0.826
  sub61                     24.85       0.00       0.00       3.06      19.37       1.16      20.53        6.33   963.55   0.826
  sub62                     24.85       0.00       0.00       1.26      21.25       0.73      21.98        6.76   994.66   0.885
  sub63                     24.85       0.00       0.00       5.70      16.77       1.51      18.28        5.53   874.55   0.736
  sub64                     24.85       0.00       0.00       2.84      18.97       0.89      19.86        6.04   799.09   0.799
  sub65                     24.85       0.00       0.00       2.40      19.34       0.83      20.17        6.20   813.74   0.812
  sub66                     24.85       0.00       0.00       6.08      16.09       1.12      17.21        5.28   720.74   0.693
  sub67                     24.85       0.00       0.00       1.17      21.86       0.82      22.68        7.00  1166.50   0.913
  sub68                     24.85       0.00       0.00       2.37      20.23       1.10      21.34        6.56  1035.79   0.859
  sub69                     24.85       0.00       0.00       2.37      20.49       1.36      21.85        5.11   922.77   0.879
  sub70                     24.85      22.30       0.00      10.02      29.47       5.72      35.19        8.05  1086.15   0.746
  sub71                     24.85       0.00       0.00       1.29      20.95       0.69      21.64        5.11   716.84   0.871
  sub72                     24.85       0.00       0.00       1.28      18.37       0.46      18.82        3.84   412.78   0.758
  1                         24.85      34.27       0.00       1.40      36.44      13.34      49.77       11.70  1213.95   0.842
  2                         24.85       0.00       0.00       3.09       6.06       6.13      12.20        4.88   568.69   0.491
  
  
  ****************************
  Subcatchment Washoff Summary
  ****************************
  
  ------------------------------------------------------------------------------------------
                                 COD            SS            TN            TP         NH4-N
  Subcatchment                    kg            kg            kg            kg            kg
  ------------------------------------------------------------------------------------------
  sub0                         5.845        11.433         0.110         0.009         0.054
  sub1                        25.959        52.947         0.512         0.037         0.249
  sub2                        19.010        38.572         0.400         0.028         0.187
  sub3                        47.084        95.031         0.973         0.069         0.457
  sub4                        61.582       128.714         1.245         0.080         0.604
  sub5                        58.569       117.140         1.124         0.088         0.552
  sub7                        12.838        26.465         0.255         0.018         0.124
  sub8                        19.139        40.591         0.392         0.024         0.190
  sub9                        16.503        34.434         0.332         0.022         0.161
  sub10                       48.044        97.515         0.937         0.069         0.459
  sub11                       46.158        94.700         0.912         0.065         0.445
  sub12                       40.158        80.596         0.780         0.060         0.381
  sub14                       35.465        73.194         0.704         0.049         0.344
  sub15                       52.927       106.229         1.057         0.080         0.505
  sub16                       34.436        68.859         0.684         0.053         0.327
  sub17                       31.614        62.571         0.617         0.049         0.296
  sub22                      181.881       361.464         3.564         0.276         1.697
  sub23                       98.879       202.810         2.106         0.144         0.985
  sub60                      662.898      1324.014        13.138         0.851         6.348
  sub61                      823.842      1631.513        15.661         1.120         7.607
  sub62                      820.347      1648.245        16.167         1.078         7.832
  sub63                      629.083      1231.310        12.527         0.914         5.913
  sub64                      866.831      1672.453        16.271         1.225         7.854
  sub65                      880.928      1705.580        16.619         1.232         8.030
  sub66                      504.098       984.947        10.118         0.691         4.791
  sub67                     1203.129      2374.527        22.632         1.722        11.052
  sub68                      883.370      1760.715        17.189         1.213         8.305
  sub69                      775.989      1550.915        15.020         1.098         7.271
  sub70                     1436.402      2850.261        30.053         2.185        14.387
  sub71                      540.602      1099.535        11.010         0.674         5.311
  sub72                      487.696       931.038         9.161         0.653         4.438
  1                         1181.589      2356.921        24.914         1.810        11.834
  2                          130.285       245.131         3.405         0.210         1.480
  ------------------------------------------------------------------------------------------
  System                   12663.182     25060.369       250.591        17.896       120.469
  
  
  ******************
  Node Depth Summary
  ******************
  
  ---------------------------------------------------------------------------------
                                 Average  Maximum  Maximum  Time of Max    Reported
                                   Depth    Depth      HGL   Occurrence   Max Depth
  Node                 Type       Meters   Meters   Meters  days hr:min      Meters
  ---------------------------------------------------------------------------------
  WS02001211           JUNCTION     0.26     0.40     5.24     0  02:27        0.40
  WS02001212           JUNCTION     0.06     0.22     5.29     0  02:26        0.22
  WS02001213           JUNCTION     0.37     0.58     5.34     0  02:25        0.58
  WS02003069           JUNCTION     0.23     0.47     5.06     0  02:26        0.47
  WS02003072           JUNCTION     0.29     0.54     4.91     0  02:27        0.54
  WS02003073           JUNCTION     0.16     0.32     4.39     0  02:27        0.32
  WS02003060           JUNCTION     0.20     0.42     5.35     0  02:25        0.42
  WS02003066           JUNCTION     0.17     0.35     5.90     0  02:24        0.35
  WS02003059           JUNCTION     0.44     0.66     5.35     0  02:25        0.66
  WS02003067           JUNCTION     0.45     0.78     6.10     0  02:24        0.78
  WS02004401           JUNCTION     0.55     1.08     7.08     0  02:22        1.08
  WS02004402           JUNCTION     0.58     1.09     7.05     0  02:22        1.09
  WS02004403           JUNCTION     0.60     1.08     7.01     0  02:22        1.08
  WS02004404           JUNCTION     0.67     1.13     6.98     0  02:22        1.13
  WS02004406           JUNCTION     0.68     1.09     6.92     0  02:22        1.09
  WS02004409           JUNCTION     0.35     0.83     6.60     0  02:24        0.83
  WS02004410           JUNCTION     0.37     0.83     6.55     0  02:24        0.83
  WS02004411           JUNCTION     0.39     0.83     6.51     0  02:24        0.83
  WS02004412           JUNCTION     0.41     0.82     6.46     0  02:24        0.82
  WS02004413           JUNCTION     0.56     0.96     6.43     0  02:24        0.96
  WS02004405           JUNCTION     0.67     1.12     6.97     0  02:22        1.12
  WS02006109           JUNCTION     0.60     1.18     7.80     0  02:21        1.18
  WS02006110           JUNCTION     0.61     1.06     7.65     0  02:21        1.06
  WS02006111           JUNCTION     0.17     0.54     7.25     0  02:22        0.54
  WS02006112           JUNCTION     0.70     1.34     7.22     0  02:22        1.34
  WS02006113           JUNCTION     0.24     0.57     7.46     0  02:22        0.57
  WS02006115           JUNCTION     0.44     1.03     7.17     0  02:22        1.03
  WS02006116           JUNCTION     0.52     1.09     7.13     0  02:22        1.09
  WS02006230           JUNCTION     0.51     1.19     7.93     0  02:21        1.19
  WS02006231           JUNCTION     0.25     0.73     7.86     0  02:21        0.73
  WS02006232           JUNCTION     0.34     0.75     7.79     0  02:21        0.75
  WS02006234           JUNCTION     0.20     0.53     7.69     0  02:21        0.53
  WS02006235           JUNCTION     0.19     0.36     7.52     0  02:22        0.36
  WS02006238           JUNCTION     0.21     0.38     7.52     0  02:22        0.38
  WS02006240           JUNCTION     0.07     0.24     7.53     0  02:23        0.24
  WS02006242           JUNCTION     0.10     0.27     7.54     0  02:23        0.27
  WS02006243           JUNCTION     0.04     0.13     7.55     0  02:23        0.13
  WS02006245           JUNCTION     0.05     0.15     7.64     0  02:22        0.15
  WS02006247           JUNCTION     0.06     0.18     7.68     0  02:22        0.18
  WS02006248           JUNCTION     0.04     0.13     7.72     0  02:21        0.13
  WS02006249           JUNCTION     0.06     0.18     7.78     0  02:21        0.18
  WS02006239           JUNCTION     0.15     0.31     7.52     0  02:22        0.31
  WS02006251           JUNCTION     0.04     0.15     7.82     0  02:20        0.15
  WS02006252           JUNCTION     0.00     0.00     8.24     0  00:00        0.00
  WS02006253           JUNCTION     0.17     0.44     8.08     0  02:19        0.44
  WS02006256           JUNCTION     1.98     2.35     9.28     0  00:00        2.35
  WS02004138           JUNCTION     0.14     0.14     7.39     0  00:00        0.14
  WS02004139           JUNCTION     0.16     0.22     5.13     0  02:27        0.22
  WS02004407           JUNCTION     0.16     0.36     6.67     0  02:22        0.36
  WS02006228           JUNCTION     0.60     1.28     7.93     0  02:21        1.28
  WS02006229           JUNCTION     0.57     1.32     8.01     0  02:20        1.32
  WS02006280           JUNCTION     0.12     0.33     8.61     0  02:20        0.33
  WS02006284           JUNCTION     0.44     0.76     9.16     0  02:20        0.76
  WS02006287           JUNCTION     0.18     0.51     9.47     0  02:20        0.51
  WSF200               JUNCTION     0.15     0.35     5.58     0  02:24        0.35
  HS02004901           JUNCTION     0.19     0.47    10.30     0  02:18        0.47
  HS02004881           JUNCTION     0.02     0.07     9.10     0  02:19        0.07
  HS02004876           JUNCTION     0.07     0.21     9.24     0  02:19        0.21
  HS02004870           JUNCTION     0.04     0.13     9.42     0  02:20        0.13
  HS02004862           JUNCTION     0.04     0.15     9.53     0  02:20        0.15
  HS02004856           JUNCTION     0.10     0.18     9.61     0  02:20        0.18
  HS02004852           JUNCTION     0.03     0.11     9.62     0  02:20        0.11
  HS02004848           JUNCTION     0.03     0.10     9.70     0  02:20        0.10
  HS02004842           JUNCTION     0.35     0.43     9.70     0  02:20        0.43
  HS02004837           JUNCTION     0.05     0.12     9.70     0  02:20        0.12
  HS02004830           JUNCTION     0.06     0.20     9.67     0  02:20        0.20
  HS02004824           JUNCTION     0.06     0.26     9.66     0  02:20        0.26
  HS02004817           JUNCTION     0.50     0.82     9.67     0  02:20        0.82
  HS02004807           JUNCTION     0.19     0.49     9.66     0  02:20        0.49
  HS02004802           JUNCTION     0.23     0.52     9.65     0  02:20        0.52
  HS02004799           JUNCTION     0.21     0.61     9.82     0  02:19        0.61
  HS02004792           JUNCTION     0.09     0.32     9.85     0  02:19        0.32
  HS02004788           JUNCTION     0.06     0.22    10.12     0  02:19        0.22
  HS02004785           JUNCTION     0.10     0.32    10.22     0  02:19        0.32
  HS02004777           JUNCTION     0.21     0.48    10.28     0  02:19        0.48
  HS02004770           JUNCTION     0.18     0.47    10.30     0  02:19        0.47
  HS02004480           JUNCTION     0.16     0.51     9.75     0  02:19        0.51
  HS02004479           JUNCTION     0.20     0.55     9.75     0  02:19        0.55
  HS02004478           JUNCTION     0.12     0.40     9.63     0  02:20        0.40
  YS02001745           JUNCTION     0.78     1.10     8.62     0  02:42        1.10
  YS02001748           JUNCTION     1.16     1.51     8.59     0  02:42        1.51
  YS02001751           JUNCTION     1.33     1.68     8.56     0  02:42        1.67
  YS02001754           JUNCTION     1.57     1.91     8.52     0  02:42        1.91
  YS02001762           JUNCTION     1.76     2.09     8.49     0  02:42        2.08
  YS02001765           JUNCTION     1.71     2.03     8.48     0  02:41        2.02
  YS02001767           JUNCTION     1.68     1.98     8.47     0  02:41        1.97
  YS02001770           JUNCTION     1.67     1.95     8.44     0  02:15        1.95
  YS02001774           JUNCTION     1.73     2.00     8.42     0  02:42        1.99
  YS02001779           JUNCTION     1.46     1.68     8.37     0  02:01        1.68
  YS02001882           JUNCTION     0.86     1.68     8.39     0  02:41        1.67
  YS02001884           JUNCTION     0.95     1.78     8.39     0  02:41        1.77
  YS02001759           JUNCTION     1.80     2.13     8.50     0  02:42        2.12
  YS02001887           JUNCTION     1.03     1.86     8.39     0  02:41        1.85
  YS02001890           JUNCTION     1.04     1.81     8.32     0  02:01        1.81
  YS02001898           JUNCTION     0.81     1.56     8.30     0  02:07        1.56
  YS02001901           JUNCTION     0.92     1.68     8.29     0  02:05        1.67
  YS02001904           JUNCTION     0.90     1.64     8.27     0  02:06        1.63
  YS02001907           JUNCTION     1.22     1.96     8.25     0  02:01        1.96
  YS02001910           JUNCTION     1.03     1.83     8.34     0  02:42        1.82
  YS02001915           JUNCTION     0.85     1.69     8.41     0  02:42        1.68
  YS02001918           JUNCTION     0.58     1.35     8.42     0  02:42        1.35
  YS02001619           JUNCTION     1.27     1.53     8.46     0  02:42        1.53
  YS02001629           JUNCTION     1.60     1.85     8.40     0  02:41        1.85
  YS02001641           JUNCTION     1.69     1.94     8.37     0  02:41        1.93
  YS02001644           JUNCTION     1.69     1.92     8.35     0  01:58        1.92
  YS02001652           JUNCTION     1.58     1.98     8.58     0  02:04        1.89
  YS02001655           JUNCTION     1.35     1.85     8.70     0  02:04        1.67
  YS02001920           JUNCTION     0.67     1.42     8.43     0  02:41        1.42
  YS02001923           JUNCTION     0.48     1.19     8.45     0  02:02        1.17
  YS02001926           JUNCTION     0.48     1.09     8.53     0  02:02        0.99
  YS02001929           JUNCTION     0.32     0.79     8.49     0  02:02        0.75
  YS02001658           JUNCTION     1.10     1.61     8.75     0  02:04        1.49
  YS02001661           JUNCTION     0.88     1.70     9.10     0  02:04        1.49
  YS02001664           JUNCTION     0.42     0.66     8.58     0  02:33        0.66
  YS02001622           JUNCTION     1.29     1.54     8.44     0  02:42        1.53
  YS02001633           JUNCTION     1.70     1.96     8.41     0  02:41        1.95
  YS02001649           JUNCTION     1.76     2.05     8.44     0  02:02        2.05
  YS02001757           JUNCTION     1.89     2.21     8.47     0  02:27        2.21
  YS02001895           JUNCTION     0.81     1.57     8.31     0  02:01        1.56
  YS02001625           JUNCTION     1.56     1.78     8.38     0  01:56        1.78
  YS02163301           JUNCTION     1.63     1.89     8.41     0  02:42        1.88
  YS02163601           JUNCTION     1.74     2.00     8.40     0  02:41        1.99
  YS02164001           JUNCTION     1.68     1.92     8.38     0  02:41        1.92
  YS02001647           JUNCTION     1.54     1.80     8.41     0  02:07        1.79
  YSB1154              JUNCTION     0.34     0.70     9.76     0  02:19        0.70
  YSB6556              JUNCTION     0.23     0.59     9.76     0  02:19        0.59
  YSB1174              JUNCTION     0.29     0.65     9.76     0  02:19        0.65
  YSB1171              JUNCTION     0.49     0.85     9.76     0  02:19        0.85
  YS02006553           JUNCTION     1.22     2.04     8.32     0  02:08        1.97
  YS02006561           JUNCTION     0.53     1.29     7.95     0  02:08        1.10
  YS02006556           JUNCTION     1.19     2.11     8.42     0  02:08        1.94
  YS02006558           JUNCTION     1.23     2.18     8.45     0  02:08        1.99
  YS02001783           JUNCTION     0.78     1.73     7.87     0  02:08        1.48
  YS02001784           JUNCTION     0.77     1.71     7.78     0  02:08        1.42
  YS02001786           JUNCTION     0.68     1.58     7.61     0  02:08        1.27
  YS02001788           JUNCTION     0.58     1.49     7.46     0  02:08        1.13
  YS02001790           JUNCTION     0.68     1.56     7.20     0  02:08        1.29
  YS02001791           JUNCTION     0.62     1.28     6.75     0  02:10        1.27
  YS02001793           JUNCTION     0.81     1.80     6.64     0  02:41        1.80
  WSC                  OUTFALL      0.16     0.32     0.99     0  02:28        0.32
  3                    OUTFALL      0.00     0.00     7.16     0  00:00        0.00
  4                    OUTFALL      0.00     0.00     7.67     0  00:00        0.00
  5                    OUTFALL      0.00     0.00     4.91     0  00:00        0.00
  JK-storage           STORAGE      2.65     5.80     6.60     0  02:09        5.80
  CC-storage           STORAGE      1.14     1.49     8.49     0  02:35        1.49
  XR-storage           STORAGE      7.46     7.72     5.72     0  01:44        7.72
  
  
  *******************
  Node Inflow Summary
  *******************
  
  -------------------------------------------------------------------------------------------------
                                  Maximum  Maximum                  Lateral       Total        Flow
                                  Lateral    Total  Time of Max      Inflow      Inflow     Balance
                                   Inflow   Inflow   Occurrence      Volume      Volume       Error
  Node                 Type           LPS      LPS  days hr:min    10^6 ltr    10^6 ltr     Percent
  -------------------------------------------------------------------------------------------------
  WS02001211           JUNCTION      7.35   148.56     0  02:26       0.212       0.689       0.875
  WS02001212           JUNCTION      0.00   141.50     0  02:26           0       0.473       0.012
  WS02001213           JUNCTION      0.00   142.07     0  02:25           0       0.484       1.765
  WS02003069           JUNCTION      0.32   650.90     0  02:26     0.00922        4.31       0.119
  WS02003072           JUNCTION      0.00   650.78     0  02:26           0         4.3       0.194
  WS02003073           JUNCTION      1.82   652.62     0  02:27      0.0524        4.35       0.165
  WS02003060           JUNCTION     16.53   793.02     0  02:25       0.476        4.81       0.099
  WS02003066           JUNCTION      0.00   776.38     0  02:24           0        4.33       0.038
  WS02003059           JUNCTION      0.00   143.82     0  02:22           0       0.509       3.415
  WS02003067           JUNCTION      0.00   776.22     0  02:24           0        4.33       0.104
  WS02004401           JUNCTION      0.00   778.01     0  02:22           0        4.45       0.251
  WS02004402           JUNCTION      0.00   778.08     0  02:22           0        4.43       0.252
  WS02004403           JUNCTION      0.00   778.13     0  02:22           0        4.42       0.244
  WS02004404           JUNCTION      0.16   778.33     0  02:22     0.00467        4.42       0.188
  WS02004406           JUNCTION      0.00   778.42     0  02:22           0         4.4       0.493
  WS02004409           JUNCTION      0.00   778.39     0  02:22           0        4.37       0.083
  WS02004410           JUNCTION      0.00   777.15     0  02:23           0        4.37       0.125
  WS02004411           JUNCTION      0.00   776.49     0  02:23           0        4.36       0.151
  WS02004412           JUNCTION      0.00   776.22     0  02:24           0        4.36       0.195
  WS02004413           JUNCTION      0.00   776.18     0  02:24           0        4.35       0.344
  WS02004405           JUNCTION      0.04   778.39     0  02:22      0.0011        4.41       0.298
  WS02006109           JUNCTION      1.23   735.24     0  02:20      0.0354        4.32       0.256
  WS02006110           JUNCTION      0.00   735.23     0  02:20           0        4.31       0.224
  WS02006111           JUNCTION      0.00   733.19     0  02:21           0         4.3       0.010
  WS02006112           JUNCTION     47.27   777.54     0  02:22       0.179        4.48       0.334
  WS02006113           JUNCTION      0.00   735.21     0  02:20           0         4.3       0.064
  WS02006115           JUNCTION      0.00   777.56     0  02:22           0        4.46       0.216
  WS02006116           JUNCTION      0.00   777.87     0  02:22           0        4.45       0.141
  WS02006230           JUNCTION     10.28   407.81     0  02:21       0.296        1.77       0.290
  WS02006231           JUNCTION      0.00   407.84     0  02:21           0        1.53       0.028
  WS02006232           JUNCTION      0.00   407.89     0  02:21           0        1.53       0.272
  WS02006234           JUNCTION      0.00   407.90     0  02:21           0        1.52       0.004
  WS02006235           JUNCTION      0.00   704.56     0  02:22           0         7.1       0.028
  WS02006238           JUNCTION      0.00    49.30     0  00:00           0       0.135       0.754
  WS02006240           JUNCTION      0.00    37.00     0  02:25           0       0.124      -0.004
  WS02006242           JUNCTION      0.00    36.37     0  02:24           0       0.123       0.088
  WS02006243           JUNCTION      0.00    36.44     0  02:22           0       0.123      -0.048
  WS02006245           JUNCTION      0.00    36.48     0  02:22           0       0.123       0.251
  WS02006247           JUNCTION      0.00    36.54     0  02:21           0       0.123       0.127
  WS02006248           JUNCTION      0.00    36.55     0  02:21           0       0.123       0.018
  WS02006249           JUNCTION      0.00    36.64     0  02:20           0       0.123       0.069
  WS02006239           JUNCTION      0.00    37.96     0  02:26           0       0.128       0.510
  WS02006251           JUNCTION      0.08   237.22     0  02:20     0.00222       0.968      -0.004
  WS02006252           JUNCTION      0.00     0.00     0  00:00           0           0       0.000 ltr
  WS02006253           JUNCTION      5.41   237.16     0  02:19      0.0195       0.966       0.021
  WS02006256           JUNCTION      0.00   683.00     0  00:00           0        11.4      -0.015
  WS02004138           JUNCTION      0.00   190.00     0  00:00           0        5.47       0.071
  WS02004139           JUNCTION      0.32   338.72     0  02:27     0.00924        6.16       0.073
  WS02004407           JUNCTION      0.00   778.46     0  02:22           0        4.37       0.039
  WS02006228           JUNCTION      0.00   734.02     0  02:20           0        4.29       0.157
  WS02006229           JUNCTION      0.00  1131.42     0  02:20           0         5.4       0.138
  WS02006280           JUNCTION      0.00  1131.40     0  02:20           0         4.8       0.002
  WS02006284           JUNCTION      0.10  1131.24     0  02:20     0.00275         4.8       0.012
  WS02006287           JUNCTION      0.00  1131.05     0  02:20           0         4.8       0.017
  WSF200               JUNCTION      0.00   776.42     0  02:24           0        4.33       0.016
  HS02004901           JUNCTION     57.88    57.88     0  02:17       0.217       0.217       0.820
  HS02004881           JUNCTION     21.21   232.19     0  02:19      0.0802       0.946       0.008
  HS02004876           JUNCTION     39.27   211.69     0  02:19       0.156       0.867       0.061
  HS02004870           JUNCTION     39.43   172.89     0  02:19       0.152       0.711       0.017
  HS02004862           JUNCTION     41.08   134.62     0  02:20       0.184       0.559       0.031
  HS02004856           JUNCTION     29.56    93.61     0  02:19       0.114       0.376       0.386
  HS02004852           JUNCTION      0.00    64.88     0  02:20           0       0.262       0.022
  HS02004848           JUNCTION     91.35    91.35     0  02:21       0.422       0.422       0.014
  HS02004842           JUNCTION      0.00    28.46     0  02:30           0       0.173       8.103
  HS02004837           JUNCTION     73.01    98.03     0  02:19       0.446       0.607       0.136
  HS02004830           JUNCTION      0.15    98.15     0  02:20     0.00432       0.597       0.208
  HS02004824           JUNCTION    105.40   204.18     0  02:22       0.485        1.08       0.051
  HS02004817           JUNCTION      0.60   206.29     0  02:22      0.0173         1.1       1.504
  HS02004807           JUNCTION     72.38   273.92     0  02:21       0.278        1.36       0.321
  HS02004802           JUNCTION      0.00   274.77     0  02:21           0        1.36       0.290
  HS02004799           JUNCTION     58.29   738.12     0  02:19       0.226        2.99       0.100
  HS02004792           JUNCTION    292.96   680.89     0  02:19         1.2        2.76       0.016
  HS02004788           JUNCTION     91.23   388.89     0  02:19       0.406        1.57       0.026
  HS02004785           JUNCTION      0.15   297.99     0  02:18     0.00432        1.16       0.043
  HS02004777           JUNCTION      0.03   298.23     0  02:18    0.000864        1.16       0.450
  HS02004770           JUNCTION    241.64   298.97     0  02:17       0.949        1.16       0.267
  HS02004480           JUNCTION      0.00   859.08     0  02:19           0        3.46       0.027
  HS02004479           JUNCTION      0.00   121.45     0  02:18           0       0.485       0.152
  HS02004478           JUNCTION      0.00  1130.98     0  02:20           0         4.8       0.005
  YS02001745           JUNCTION    832.72   832.72     0  02:45        6.22        6.22       0.184
  YS02001748           JUNCTION      0.04   832.76     0  02:44      0.0013        6.21       0.368
  YS02001751           JUNCTION      0.01   832.84     0  02:42    0.000317        6.19       0.380
  YS02001754           JUNCTION      0.26   833.04     0  02:44     0.00749        6.18       0.395
  YS02001762           JUNCTION      0.00   412.09     0  02:01           0         3.6       0.585
  YS02001765           JUNCTION      0.00   412.38     0  02:01           0         3.6       0.676
  YS02001767           JUNCTION      0.54   412.69     0  02:01      0.0154        3.63       0.987
  YS02001770           JUNCTION    994.81  1406.31     0  02:38        6.76        9.32       0.335
  YS02001774           JUNCTION      0.00   851.76     0  02:42           0        6.71       0.373
  YS02001779           JUNCTION      0.01   851.53     0  02:42    0.000144        6.68       0.222
  YS02001882           JUNCTION      0.00    20.42     0  01:56           0      0.0243       7.033
  YS02001884           JUNCTION      0.00    29.20     0  01:54           0      0.0611      10.525
  YS02001759           JUNCTION    963.59   963.59     0  02:37        6.33        7.34       0.310
  YS02001887           JUNCTION   1166.95  1166.96     0  02:31        7.01        7.04       0.118
  YS02001890           JUNCTION      0.00  1166.96     0  02:31           0           7       0.122
  YS02001898           JUNCTION      0.00   533.91     0  02:01           0        4.97       0.055
  YS02001901           JUNCTION      0.00   532.36     0  02:01           0        4.97       0.123
  YS02001904           JUNCTION      0.00   532.78     0  02:01           0        4.97       0.096
  YS02001907           JUNCTION      0.00  1673.22     0  02:41           0          14       0.157
  YS02001910           JUNCTION      0.00  1113.73     0  02:47           0        9.02       0.134
  YS02001915           JUNCTION    716.86  1113.72     0  02:47        5.11        9.05       0.061
  YS02001918           JUNCTION      0.00   418.23     0  03:01           0        3.96       0.037
  YS02001619           JUNCTION    720.74   720.74     0  02:44        5.28        5.28       0.232
  YS02001629           JUNCTION      0.00   332.10     0  02:47           0        2.58       1.124
  YS02001641           JUNCTION      0.00   486.83     0  01:58           0        6.19       0.340
  YS02001644           JUNCTION    799.13  2127.84     0  02:46        6.04        21.4       0.118
  YS02001652           JUNCTION      0.00   874.76     0  02:34           0        5.46       0.422
  YS02001655           JUNCTION      0.15   874.76     0  02:34     0.00443        5.49       0.449
  YS02001920           JUNCTION      2.87   418.16     0  03:01      0.0827        3.94       0.074
  YS02001923           JUNCTION      0.04   413.83     0  03:01     0.00109        3.85       0.041
  YS02001926           JUNCTION      0.05   412.99     0  03:01      0.0015        3.84       0.089
  YS02001929           JUNCTION    412.78   412.78     0  03:01        3.83        3.83       0.024
  YS02001658           JUNCTION      0.00   874.60     0  02:34           0        5.51       0.439
  YS02001661           JUNCTION      0.00   874.60     0  02:34           0        5.53       0.352
  YS02001664           JUNCTION    874.55   874.55     0  02:35        5.53        5.53       0.093
  YS02001622           JUNCTION      0.00   720.99     0  02:42           0        5.26       0.605
  YS02001633           JUNCTION    813.94   813.94     0  02:46        6.21         7.5       0.426
  YS02001649           JUNCTION      0.00  1682.58     0  02:34           0        13.4       0.273
  YS02001757           JUNCTION      0.00  2087.53     0  02:00           0        12.8       0.718
  YS02001895           JUNCTION      0.00   533.92     0  02:01           0        4.98       0.098
  YS02001625           JUNCTION      0.00  1052.39     0  02:45           0        6.48       0.600
  YS02163301           JUNCTION      0.00   332.10     0  02:47           0        2.58       0.934
  YS02163601           JUNCTION      0.11   486.51     0  01:58     0.00317        6.21       0.485
  YS02164001           JUNCTION      0.00   486.63     0  01:58           0        6.19       0.324
  YS02001647           JUNCTION      0.00   846.70     0  02:41           0          10       0.283
  YSB1154              JUNCTION     67.96    67.96     0  02:18       0.272       0.272       0.535
  YSB6556              JUNCTION      0.00    67.70     0  02:17           0       0.273       0.461
  YSB1174              JUNCTION     56.11    56.11     0  02:16       0.204       0.205       0.631
  YSB1171              JUNCTION      0.00   121.82     0  02:17           0       0.483       1.330
  YS02006553           JUNCTION      0.00   705.10     0  04:01           0        6.99       0.204
  YS02006561           JUNCTION      0.00  1150.22     0  02:08           0        13.4       0.001
  YS02006556           JUNCTION      0.00   705.63     0  04:01           0           7       0.125
  YS02006558           JUNCTION   1036.67  1151.00     0  02:08        6.59        13.5       0.035
  YS02001783           JUNCTION      0.00  1150.16     0  02:08           0        13.4       0.016
  YS02001784           JUNCTION      1.06  1151.57     0  02:08      0.0305        13.4       0.031
  YS02001786           JUNCTION      0.06  1151.26     0  02:08     0.00162        13.4       0.028
  YS02001788           JUNCTION      0.07  1151.93     0  02:08     0.00204        13.4       0.016
  YS02001790           JUNCTION      0.15  1162.40     0  02:07     0.00446        13.4       0.023
  YS02001791           JUNCTION      0.00  1273.72     0  02:04           0        13.4       0.005
  YS02001793           JUNCTION      0.00  1197.35     0  02:06           0        13.4       0.000
  WSC                  OUTFALL       0.00   652.56     0  02:28           0        4.34       0.000
  3                    OUTFALL       0.00   704.56     0  02:22           0        6.72       0.000
  4                    OUTFALL       0.00   200.58     0  02:20           0       0.845       0.000
  5                    OUTFALL       0.00   338.66     0  02:27           0        6.15       0.000
  JK-storage           STORAGE       0.00  1190.29     0  02:02           0        13.6      -0.214
  CC-storage           STORAGE       0.00  2086.77     0  02:00           0        4.32       1.525
  XR-storage           STORAGE    1909.25  1909.25     0  03:01        22.3        22.9      -0.003
  
  
  **********************
  Node Surcharge Summary
  **********************
  
  Surcharging occurs when water rises above the top of the highest conduit.
  ---------------------------------------------------------------------
                                               Max. Height   Min. Depth
                                   Hours       Above Crown    Below Rim
  Node                 Type      Surcharged         Meters       Meters
  ---------------------------------------------------------------------
  WS02004401           JUNCTION        0.27          0.083        1.577
  WS02004402           JUNCTION        0.31          0.088        1.652
  WS02004403           JUNCTION        0.32          0.080        1.950
  WS02004404           JUNCTION        0.56          0.135        2.645
  WS02004406           JUNCTION        0.46          0.090        2.360
  WS02004405           JUNCTION        0.51          0.117        2.683
  WS02006109           JUNCTION        1.20          0.363        1.457
  WS02006110           JUNCTION        0.67          0.153        1.697
  WS02006112           JUNCTION        0.95          0.341        1.339
  WS02006115           JUNCTION        0.10          0.019        2.231
  WS02006116           JUNCTION        0.14          0.029        2.261
  WS02006230           JUNCTION        0.26          0.108        1.462
  WS02006231           JUNCTION        0.12          0.023        1.507
  WS02006232           JUNCTION        0.24          0.048        1.432
  WS02006256           JUNCTION        6.66          2.050        0.000
  WS02006228           JUNCTION        1.19          0.453        1.747
  HS02004817           JUNCTION        0.73          0.121        1.619
  YS02001745           JUNCTION        1.19          0.103        1.247
  YS02001748           JUNCTION        6.05          0.434        0.756
  YS02001751           JUNCTION        6.13          0.680        0.520
  YS02001754           JUNCTION        6.26          0.862        0.288
  YS02001762           JUNCTION        6.34          1.090        0.060
  YS02001765           JUNCTION        6.33          1.028        0.072
  YS02001767           JUNCTION        6.31          0.982        0.048
  YS02001770           JUNCTION        6.30          0.920        0.000
  YS02001774           JUNCTION        6.34          1.001        0.049
  YS02001779           JUNCTION        6.24          0.680        0.000
  YS02001882           JUNCTION        2.39          0.676        0.154
  YS02001884           JUNCTION        2.42          0.718        0.152
  YS02001759           JUNCTION        6.35          1.133        0.077
  YS02001887           JUNCTION        2.50          0.806        0.144
  YS02001890           JUNCTION        2.53          0.760        0.000
  YS02001898           JUNCTION        2.35          0.533        0.207
  YS02001901           JUNCTION        2.47          0.676        0.194
  YS02001904           JUNCTION        2.45          0.636        0.214
  YS02001907           JUNCTION        2.97          0.950        0.000
  YS02001910           JUNCTION        2.58          0.833        0.267
  YS02001915           JUNCTION        2.38          0.689        0.311
  YS02001918           JUNCTION        2.14          0.353        0.457
  YS02001619           JUNCTION        6.15          0.534        0.076
  YS02001629           JUNCTION        6.14          0.470        0.000
  YS02001641           JUNCTION        6.32          0.937        0.163
  YS02001644           JUNCTION        6.32          0.920        0.000
  YS02001652           JUNCTION        6.28          0.955        0.175
  YS02001655           JUNCTION        6.15          0.849        0.351
  YS02001920           JUNCTION        2.17          0.420        0.720
  YS02001926           JUNCTION        0.01          0.088        0.812
  YS02001658           JUNCTION        6.07          0.605        0.695
  YS02001661           JUNCTION        1.25          0.630        0.760
  YS02001622           JUNCTION        6.15          0.536        0.084
  YS02001633           JUNCTION        6.32          0.941        0.119
  YS02001649           JUNCTION        6.34          1.050        0.000
  YS02001757           JUNCTION        6.38          1.210        0.000
  YS02001895           JUNCTION        2.36          0.565        0.185
  YS02001625           JUNCTION        6.29          0.780        0.000
  YS02163301           JUNCTION        6.30          0.893        0.137
  YS02163601           JUNCTION        6.34          0.998        0.082
  YS02164001           JUNCTION        6.32          0.922        0.178
  YS02001647           JUNCTION        6.28          0.802        0.098
  YSB1171              JUNCTION        0.04          0.001        1.099
  YS02006553           JUNCTION        3.07          1.039        0.151
  YS02006561           JUNCTION        2.22          0.491        0.659
  YS02006556           JUNCTION        2.78          1.066        0.284
  YS02006558           JUNCTION        2.74          1.083        0.317
  YS02001783           JUNCTION        2.75          0.928        0.672
  YS02001784           JUNCTION        2.75          0.907        0.583
  YS02001786           JUNCTION        2.66          0.785        0.645
  YS02001788           JUNCTION        2.52          0.686        0.794
  YS02001790           JUNCTION        2.60          0.759        0.398
  YS02001791           JUNCTION        2.63          0.480        1.440
  YS02001793           JUNCTION        2.71          0.804        1.796
  
  
  *********************
  Node Flooding Summary
  *********************
  
  Flooding refers to all water that overflows a node, whether it ponds or not.
  --------------------------------------------------------------------------
                                                             Total   Maximum
                                 Maximum   Time of Max       Flood    Ponded
                        Hours       Rate    Occurrence      Volume     Depth
  Node                 Flooded       LPS   days hr:min    10^6 ltr    Meters
  --------------------------------------------------------------------------
  WS02006256              4.60    678.53      0  00:00       5.558     0.000
  YS02001770              1.15    555.14      0  02:38       1.534     0.000
  YS02001779              3.94    851.35      0  02:42       6.665     0.000
  YS02001890              1.37    650.57      0  02:31       2.010     0.000
  YS02001907              1.97   1672.60      0  02:40       7.110     0.000
  YS02001629              0.01      0.51      0  02:41       0.000     0.000
  YS02001644              6.02   2127.84      0  02:46      20.482     0.000
  YS02001649              1.36    835.88      0  02:34       2.758     0.000
  YS02001757              0.80    786.60      0  02:41       1.244     0.000
  YS02001625              2.69   1052.39      0  02:45       5.114     0.000
  JK-storage              2.48    317.59      0  02:09       2.215     0.000
  XR-storage              6.25   1719.22      0  03:01      16.532     0.000
  
  
  **********************
  Storage Volume Summary
  **********************
  
  --------------------------------------------------------------------------------------------------
                         Average     Avg  Evap Exfil       Maximum     Max    Time of Max    Maximum
                          Volume    Pcnt  Pcnt  Pcnt        Volume    Pcnt     Occurrence    Outflow
  Storage Unit           1000 m3    Full  Loss  Loss       1000 m3    Full    days hr:min        LPS
  --------------------------------------------------------------------------------------------------
  JK-storage               0.133      46     0     0         0.291     100       0  02:09     683.00
  CC-storage               3.173      20     0     0         4.160      27       0  02:35     214.68
  XR-storage               0.896      97     0     0         0.926     100       0  01:44     190.00
  
  
  ***********************
  Outfall Loading Summary
  ***********************
  
  ---------------------------------------------------------------------------------------------------------------------------------
                         Flow       Avg       Max       Total         Total         Total         Total         Total         Total
                         Freq      Flow      Flow      Volume           COD            SS            TN            TP         NH4-N
  Outfall Node           Pcnt       LPS       LPS    10^6 ltr            kg            kg            kg            kg            kg
  ---------------------------------------------------------------------------------------------------------------------------------
  WSC                   99.98    202.50    652.56       4.341       646.000      1223.940        25.742         2.723        14.697
  3                     99.98    289.96    704.56       6.725       598.389      1183.441        12.372         0.925         6.088
  4                     99.97     44.98    200.58       0.845       113.955       232.877         2.438         0.179         1.194
  5                     99.99    223.26    338.66       6.151       849.285      1485.075        56.927         6.743        34.510
  ---------------------------------------------------------------------------------------------------------------------------------
  System                99.98    760.70   1862.39      18.062      2207.630      4125.334        97.478        10.569        56.489
  
  
  ********************
  Link Flow Summary
  ********************
  
  -----------------------------------------------------------------------------
                                 Maximum  Time of Max   Maximum    Max/    Max/
                                  |Flow|   Occurrence   |Veloc|    Full    Full
  Link                 Type          LPS  days hr:min     m/sec    Flow   Depth
  -----------------------------------------------------------------------------
  WS02003066WSF200     CONDUIT    776.42     0  02:24      3.17    0.13    0.27
  WS02006287WS02006284 CONDUIT   1131.15     0  02:20      2.78    0.52    0.51
  WS02006284WS02006280 CONDUIT   1131.40     0  02:20      3.00    0.47    0.48
  WS02006280WS02006229 CONDUIT   1131.42     0  02:20      4.91    0.24    0.33
  WS02006229WS02006228 CONDUIT    734.02     0  02:20      1.46    2.43    1.00
  WS02006256WS02006235 CONDUIT    289.81     0  03:06      4.46    3.07    1.00
  WS02006253WS02006251 CONDUIT    237.15     0  02:20      1.15    0.71    0.53
  WS02006252WS02006251 CONDUIT      0.00     0  00:00      0.00    0.00    0.00
  WS02006251WS02006249 CONDUIT     36.64     0  02:20      0.52    0.11    0.24
  WS02006249WS02006248 CONDUIT     36.55     0  02:21      0.62    0.20    0.21
  WS02006248WS02006247 CONDUIT     36.54     0  02:21      0.60    0.08    0.22
  WS02006247WS02006245 CONDUIT     36.48     0  02:22      0.54    0.29    0.23
  WS02006245WS02006243 CONDUIT     36.44     0  02:22      0.68    0.11    0.20
  WS02006243WS02006242 CONDUIT     36.37     0  02:24      0.44    0.08    0.27
  WS02006242WS02006240 CONDUIT     37.00     0  02:25      0.31    0.15    0.36
  WS02006240WS02006239 CONDUIT     37.96     0  02:26      0.31    0.12    0.36
  WS02006239WS02006238 CONDUIT     38.93     0  02:26      0.44    0.12    0.48
  WS02006238WS02006235 CONDUIT     49.30     0  00:00      1.18    0.11    0.52
  WS02006235WS02006234 CONDUIT    407.93     0  02:21      1.54    4.30    0.65
  WS02006234WS02006232 CONDUIT    407.90     0  02:21      1.14    0.83    0.88
  WS02006232WS02006231 CONDUIT    407.89     0  02:21      1.06    0.85    1.00
  WS02006231WS02006230 CONDUIT    407.84     0  02:21      1.06    6.19    1.00
  WS02006230WS02006229 CONDUIT    397.53     0  02:21      1.03    8.85    1.00
  WS02006228WS02006109 CONDUIT    734.01     0  02:20      1.46    3.21    1.00
  WS02006116WS02004401 CONDUIT    778.01     0  02:22      0.99    1.07    1.00
  WS02006115WS02006116 CONDUIT    777.87     0  02:22      0.99    1.00    1.00
  WS02006113WS02006111 CONDUIT    733.19     0  02:21      2.58    0.88    0.69
  WS02006112WS02006115 CONDUIT    777.56     0  02:22      0.99    0.46    1.00
  WS02006111WS02006112 CONDUIT    733.30     0  02:22      1.69    0.35    0.83
  WS02006110WS02006113 CONDUIT    735.21     0  02:20      1.63    0.67    0.85
  WS02006109WS02006110 CONDUIT    735.23     0  02:20      1.46    1.41    1.00
  WS02004411WS02004412 CONDUIT    776.22     0  02:24      1.12    1.10    0.82
  WS02004401WS02004402 CONDUIT    778.08     0  02:22      0.99    0.93    1.00
  WS02004413WS02003067 CONDUIT    776.22     0  02:24      1.37    0.33    0.68
  WS02004412WS02004413 CONDUIT    776.18     0  02:24      1.05    0.52    0.89
  WS02004410WS02004411 CONDUIT    776.49     0  02:23      1.11    1.06    0.83
  WS02004409WS02004410 CONDUIT    777.15     0  02:23      1.11    1.01    0.83
  WS02004407WS02004409 CONDUIT    778.39     0  02:22      1.61    0.28    0.60
  WS02004406WS02004407 CONDUIT    778.46     0  02:22      1.37    0.35    0.68
  WS02004405WS02004406 CONDUIT    778.42     0  02:22      0.99    1.54    1.00
  WS02004404WS02004405 CONDUIT    778.36     0  02:22      0.99    7.63    1.00
  WS02004403WS02004404 CONDUIT    778.17     0  02:22      0.99    0.56    1.00
  WS02004402WS02004403 CONDUIT    778.13     0  02:22      0.99    1.12    1.00
  WS02004139WS02001211 CONDUIT    148.40     0  02:27      0.83    0.19    0.22
  WS02004138WS02004139 CONDUIT    191.48     0  00:00      2.95    0.04    0.15
  WS02003067WS02003066 CONDUIT    776.38     0  02:24      1.49    0.25    0.47
  WS02001213WS02003059 CONDUIT    142.07     0  02:25      0.28    0.23    0.61
  WS02001212WS02001213 CONDUIT    141.50     0  02:26      0.97    0.22    0.24
  WS02001211WS02001212 CONDUIT    141.22     0  02:26      0.68    0.11    0.31
  WS02003072WS02003073 CONDUIT    650.80     0  02:27      1.52    1.41    0.40
  WS02003069WS02003072 CONDUIT    650.78     0  02:26      1.44    0.31    0.42
  WS02003060WS02003069 CONDUIT    650.58     0  02:26      1.71    0.25    0.37
  WS02003059WS02003060 CONDUIT    143.82     0  02:22      0.56    0.09    0.54
  HS02004901HS02004770 CONDUIT     57.36     0  02:17      0.12    0.22    0.67
  HS02004876HS02004881 CONDUIT    211.73     0  02:19      1.53    2.25    0.20
  HS02004870HS02004876 CONDUIT    172.85     0  02:20      1.03    0.11    0.24
  HS02004842HS02004848 CONDUIT     28.46     0  02:30      0.11    0.02    0.37
  HS02004837HS02004842 CONDUIT     29.09     0  02:30      0.42    0.02    0.39
  HS02004830HS02004837 CONDUIT     98.00     0  02:20      0.69    0.10    0.23
  HS02004824HS02004830 CONDUIT     98.78     0  02:22      0.62    0.13    0.33
  HS02004817HS02004824 CONDUIT    205.69     0  02:22      0.43    0.09    0.68
  HS02004770HS02004777 CONDUIT    298.20     0  02:18      0.63    0.55    0.68
  HS02004799HS02004480 CONDUIT    738.14     0  02:19      1.33    0.93    0.79
  HS02004792HS02004799 CONDUIT    680.77     0  02:19      1.46    0.42    0.67
  HS02004788HS02004792 CONDUIT    388.78     0  02:19      1.43    0.26    0.39
  HS02004785HS02004788 CONDUIT    297.98     0  02:19      1.10    2.25    0.39
  HS02004777HS02004785 CONDUIT    297.84     0  02:18      0.74    0.37    0.57
  HS02004480HS02004478 CONDUIT    859.08     0  02:19      1.86    3.62    0.66
  HS02004479HS02004480 CONDUIT    121.14     0  02:18      0.37    0.12    0.76
  HS02004862HS02004870 CONDUIT    134.65     0  02:20      0.98    0.15    0.20
  HS02004848HS02004852 CONDUIT     64.88     0  02:20      0.63    0.07    0.15
  HS02004856HS02004862 CONDUIT     93.56     0  02:20      0.72    0.09    0.19
  HS02004852HS02004856 CONDUIT     64.95     0  02:21      0.44    0.07    0.21
  HS02004802HS02004478 CONDUIT    275.81     0  02:22      0.61    0.24    0.66
  HS02004478WS02006287 CONDUIT   1131.05     0  02:20      2.53    0.32    0.50
  HS02004817HS02004807 CONDUIT    206.36     0  02:22      0.35    0.12    0.85
  HS02004807HS02004802 CONDUIT    274.77     0  02:21      0.55    0.52    0.71
  YS02001759YS02001757 CONDUIT    824.26     0  02:02      1.05    0.59    1.00
  YS02001762YS02001759 CONDUIT    411.78     0  02:01      0.52    0.47    1.00
  YS02001765YS02001762 CONDUIT    412.09     0  02:01      0.52    0.39    1.00
  YS02001770YS02001767 CONDUIT    412.16     0  02:01      0.52    1.63    1.00
  YS02001774YS02001770 CONDUIT    851.76     0  02:42      1.08    0.54    1.00
  YS02001779YS02001774 CONDUIT    851.52     0  02:42      1.08    0.43    1.00
  YS02001649YS02001757 CONDUIT   1052.16     0  01:58      1.34    0.64    1.00
  YS02001767YS02001765 CONDUIT    412.38     0  02:01      0.53    0.52    1.00
  YS02006561YS02001783 CONDUIT   1150.16     0  02:08      2.29    0.60    1.00
  YS02001783YS02001784 CONDUIT   1150.51     0  02:08      2.29    1.59    1.00
  YS02001784YS02001785 CONDUIT   1151.20     0  02:08      2.29    2.68    1.00
  YS02001788YS02001790 CONDUIT   1162.24     0  02:07      2.69    0.86    1.00
  YS02001790YS02001791 CONDUIT   1273.72     0  02:04      3.43    1.39    1.00
  YS02001791YS02001793 CONDUIT   1197.35     0  02:06      6.70    0.51    1.00
  YS02001910YS02001907 CONDUIT   1113.73     0  02:47      1.42    0.63    1.00
  YS02001786YS02001788 CONDUIT   1151.86     0  02:08      2.46    2.22    1.00
  YS02001915YS02001910 CONDUIT   1113.73     0  02:47      1.42    0.55    1.00
  YS02001918YS02001915 CONDUIT    418.28     0  03:01      0.58    0.23    1.00
  YS02001923YS02001920 CONDUIT    415.29     0  03:01      0.91    0.19    1.00
  YS02001926YS02001923 CONDUIT    413.80     0  03:01      0.98    0.59    0.99
  YS02001929YS02001926 CONDUIT    412.94     0  03:01      1.06    0.20    0.90
  YS02001920YS02001918 CONDUIT    418.23     0  03:01      0.86    0.40    1.00
  YS02001629YS02163301 CONDUIT    332.10     0  02:47      0.42    0.41    1.00
  YS02001619YS02001622 CONDUIT    720.99     0  02:42      0.92    1.06    1.00
  YS02001622YS02001625 CONDUIT    720.74     0  02:44      0.92    0.38    1.00
  YS02001625YS02001629 CONDUIT    332.10     0  02:47      0.42    0.16    1.00
  YS02163301YS02001633 CONDUIT    332.10     0  02:47      0.42    0.31    1.00
  YS02163601YS02164001 CONDUIT    486.63     0  01:58      0.62    0.43    1.00
  YS02164001YS02001641 CONDUIT    486.83     0  01:58      0.62    0.66    1.00
  YS02001641YS02001644 CONDUIT    487.01     0  01:58      0.62    1.57    1.00
  YS02001647YS02001649 CONDUIT    846.70     0  02:41      1.08    0.45    1.00
  YS02006553YS02006556 CONDUIT    705.63     0  04:01      0.90    0.60    1.00
  YS02006556YS02006558 CONDUIT    706.68     0  04:01      0.90    0.56    1.00
  YSB6556YSB1171       CONDUIT     67.52     0  02:19      0.18    0.07    0.92
  YS02001907YS02006553 CONDUIT    705.10     0  04:01      0.78    0.83    1.00
  YS02006558YS02006561 CONDUIT   1150.22     0  02:08      4.07    2.54    1.00
  YS02001633YS02163601 CONDUIT    486.40     0  01:58      0.62    0.51    1.00
  YS02001644YS02001647 CONDUIT    846.70     0  02:41      1.08    0.50    1.00
  YS02001745YS02001748 CONDUIT    832.72     0  02:44      1.61    0.32    1.00
  YS02001748YS02001751 CONDUIT    832.83     0  02:42      1.18    0.42    1.00
  YS02001751YS02001754 CONDUIT    832.78     0  02:44      1.06    0.40    1.00
  YS02001754YS02001757 CONDUIT    833.04     0  02:44      1.06    0.34    1.00
  YS02001882YS02001884 CONDUIT     20.42     0  01:56      0.16    0.02    1.00
  YS02001884YS02001887 CONDUIT     29.20     0  01:54      0.12    0.04    1.00
  YS02001890YS02001895 CONDUIT    533.92     0  02:01      0.68    0.25    1.00
  YS02001895YS02001898 CONDUIT    533.91     0  02:01      0.68    0.93    1.00
  YS02001898YS02001901 CONDUIT    532.36     0  02:01      0.68    0.34    1.00
  YS02001901YS02001904 CONDUIT    532.78     0  02:01      0.68    0.83    1.00
  YS02001904YS02001907 CONDUIT    531.87     0  02:01      0.68    0.19    1.00
  YS02001887YS02001890 CONDUIT   1166.96     0  02:31      1.49    2.00    1.00
  YS02001652YS02001649 CONDUIT    874.76     0  02:34      1.11    0.43    1.00
  YS02001655YS02001652 CONDUIT    874.76     0  02:34      1.11    0.42    1.00
  YS02001658YS02001655 CONDUIT    874.60     0  02:34      1.37    0.37    1.00
  YS02001661YS02001658 CONDUIT    874.60     0  02:34      1.71    0.34    1.00
  YS02001664YS02001661 CONDUIT    874.60     0  02:34      1.65    0.27    0.83
  YSB1154YSB6556       CONDUIT     67.70     0  02:17      0.18    0.12    0.92
  YSB1174YSB1171       CONDUIT     55.42     0  02:16      0.15    0.08    0.96
  YSB1171HS02004479    CONDUIT    121.45     0  02:18      0.54    0.08    0.84
  HS02004881HS02006253 CONDUIT    232.18     0  02:19      3.05    0.05    0.12
  YS02001793JiankangQianchi CONDUIT   1190.29     0  02:02     17.38    0.09    1.00
  YS02001757CaochengTiaoxuchi CONDUIT   2086.77     0  02:00      3.08    0.92    1.00
  WSF200WS02003060     CONDUIT    776.49     0  02:25      2.49    0.17    0.32
  1                    CONDUIT    652.56     0  02:28      2.96    0.23    0.32
  CC-Pump-1            PUMP         0.00     0  00:00              0.00
  CC-Pump-2            PUMP         0.00     0  00:00              0.00
  JK-Pump-1            PUMP         0.00     0  00:00              0.00
  JK-Pump-2            PUMP       683.00     0  00:00              1.00
  XR-Pump-1            PUMP         0.00     0  00:00              0.00
  XR-Pump-2            PUMP        95.00     0  00:00              1.00
  XR-Pump-3            PUMP        95.00     0  00:00              1.00
  XR-Pump-4            PUMP         0.00     0  00:00              0.00
  3                    WEIR       200.58     0  02:20                      0.15
  5                    WEIR       704.56     0  02:22                      0.36
  6                    WEIR       338.66     0  02:27                      0.22
  
  
  ***************************
  Flow Classification Summary
  ***************************
  
  -------------------------------------------------------------------------------------
                      Adjusted    ---------- Fraction of Time in Flow Class ---------- 
                       /Actual         Up    Down  Sub   Sup   Up    Down  Norm  Inlet 
  Conduit               Length    Dry  Dry   Dry   Crit  Crit  Crit  Crit  Ltd   Ctrl  
  -------------------------------------------------------------------------------------
  WS02003066WSF200        1.00   0.11  0.00  0.00  0.00  0.89  0.00  0.00  0.69  0.00
  WS02006287WS02006284    1.00   0.05  0.02  0.00  0.47  0.47  0.00  0.00  0.66  0.00
  WS02006284WS02006280    1.00   0.06  0.00  0.00  0.00  0.00  0.00  0.94  0.00  0.00
  WS02006280WS02006229    1.00   0.06  0.00  0.00  0.00  0.00  0.00  0.94  0.00  0.00
  WS02006229WS02006228    1.00   0.00  0.00  0.00  0.99  0.00  0.00  0.01  0.00  0.00
  WS02006256WS02006235    1.00   0.00  0.00  0.00  0.22  0.78  0.00  0.00  0.02  0.00
  WS02006253WS02006251    1.00   0.02  0.03  0.00  0.00  0.00  0.95  0.00  0.00  0.00
  WS02006252WS02006251    1.00   1.00  0.00  0.00  0.00  0.00  0.00  0.00  0.00  0.00
  WS02006251WS02006249    1.00   0.00  0.00  0.00  1.00  0.00  0.00  0.00  0.97  0.00
  WS02006249WS02006248    1.00   0.00  0.06  0.00  0.00  0.00  0.94  0.00  0.00  0.00
  WS02006248WS02006247    1.00   0.06  0.00  0.00  0.81  0.00  0.00  0.13  0.38  0.00
  WS02006247WS02006245    1.00   0.06  0.00  0.00  0.68  0.00  0.00  0.26  0.00  0.00
  WS02006245WS02006243    1.00   0.07  0.00  0.00  0.41  0.00  0.00  0.53  0.00  0.00
  WS02006243WS02006242    1.00   0.01  0.06  0.00  0.92  0.00  0.00  0.01  0.80  0.00
  WS02006242WS02006240    1.00   0.00  0.06  0.00  0.80  0.00  0.13  0.00  0.17  0.00
  WS02006240WS02006239    1.00   0.00  0.00  0.00  0.92  0.00  0.00  0.08  0.15  0.00
  WS02006239WS02006238    1.00   0.00  0.00  0.00  1.00  0.00  0.00  0.00  0.13  0.00
  WS02006238WS02006235    1.00   0.00  0.00  0.00  1.00  0.00  0.00  0.00  0.00  0.00
  WS02006235WS02006234    1.00   0.06  0.00  0.00  0.75  0.00  0.01  0.18  0.00  0.00
  WS02006234WS02006232    1.00   0.00  0.00  0.00  1.00  0.00  0.00  0.00  0.11  0.00
  WS02006232WS02006231    1.00   0.00  0.00  0.00  0.99  0.00  0.00  0.00  0.01  0.00
  WS02006231WS02006230    1.00   0.00  0.00  0.00  0.40  0.00  0.60  0.00  0.00  0.00
  WS02006230WS02006229    1.00   0.00  0.00  0.00  0.99  0.00  0.00  0.01  0.02  0.00
  WS02006228WS02006109    1.00   0.00  0.00  0.00  1.00  0.00  0.00  0.00  0.00  0.00
  WS02006116WS02004401    1.00   0.04  0.00  0.00  0.96  0.00  0.00  0.00  0.00  0.00
  WS02006115WS02006116    1.00   0.04  0.00  0.00  0.92  0.00  0.00  0.04  0.00  0.00
  WS02006113WS02006111    1.00   0.02  0.00  0.00  0.04  0.93  0.00  0.00  0.08  0.00
  WS02006112WS02006115    1.00   0.03  0.02  0.00  0.96  0.00  0.00  0.00  0.00  0.00
  WS02006111WS02006112    1.00   0.03  0.00  0.00  0.97  0.00  0.00  0.00  0.88  0.00
  WS02006110WS02006113    1.00   0.01  0.02  0.00  0.98  0.00  0.00  0.00  0.00  0.00
  WS02006109WS02006110    1.00   0.00  0.01  0.00  0.99  0.00  0.00  0.00  0.00  0.00
  WS02004411WS02004412    1.00   0.09  0.00  0.00  0.91  0.00  0.00  0.00  0.00  0.00
  WS02004401WS02004402    1.00   0.04  0.00  0.00  0.96  0.00  0.00  0.00  0.04  0.00
  WS02004413WS02003067    1.00   0.10  0.01  0.00  0.00  0.00  0.89  0.00  0.00  0.00
  WS02004412WS02004413    1.00   0.10  0.00  0.00  0.90  0.00  0.00  0.00  0.00  0.00
  WS02004410WS02004411    1.00   0.09  0.00  0.00  0.91  0.00  0.00  0.00  0.00  0.00
  WS02004409WS02004410    1.00   0.09  0.00  0.00  0.91  0.00  0.00  0.00  0.00  0.00
  WS02004407WS02004409    1.00   0.09  0.00  0.00  0.90  0.01  0.00  0.00  0.81  0.00
  WS02004406WS02004407    1.00   0.00  0.09  0.00  0.91  0.00  0.00  0.00  0.00  0.00
  WS02004405WS02004406    1.00   0.00  0.00  0.00  1.00  0.00  0.00  0.00  0.04  0.00
  WS02004404WS02004405    1.00   0.00  0.00  0.00  1.00  0.00  0.00  0.00  0.00  0.00
  WS02004403WS02004404    1.00   0.00  0.05  0.00  0.95  0.00  0.00  0.00  0.04  0.00
  WS02004402WS02004403    1.00   0.04  0.00  0.00  0.96  0.00  0.00  0.00  0.00  0.00
  WS02004139WS02001211    1.00   0.00  0.00  0.00  1.00  0.00  0.00  0.00  0.00  0.00
  WS02004138WS02004139    1.00   0.00  0.00  0.00  0.00  0.17  0.00  0.83  0.10  0.00
  WS02003067WS02003066    1.00   0.11  0.00  0.00  0.89  0.00  0.00  0.00  0.00  0.00
  WS02001213WS02003059    1.00   0.00  0.00  0.00  0.99  0.00  0.00  0.00  0.00  0.00
  WS02001212WS02001213    1.00   0.01  0.54  0.00  0.45  0.01  0.00  0.00  0.47  0.00
  WS02001211WS02001212    1.00   0.00  0.01  0.00  0.99  0.00  0.00  0.00  0.53  0.00
  WS02003072WS02003073    1.00   0.00  0.00  0.00  0.00  0.00  0.00  1.00  0.00  0.00
  WS02003069WS02003072    1.00   0.00  0.00  0.00  1.00  0.00  0.00  0.00  0.82  0.00
  WS02003060WS02003069    1.00   0.00  0.00  0.00  0.98  0.02  0.00  0.00  0.79  0.00
  WS02003059WS02003060    1.00   0.00  0.00  0.00  1.00  0.00  0.00  0.00  0.08  0.00
  HS02004901HS02004770    1.00   0.05  0.00  0.00  0.95  0.00  0.00  0.00  0.00  0.00
  HS02004876HS02004881    1.00   0.01  0.00  0.00  0.67  0.31  0.00  0.00  0.00  0.00
  HS02004870HS02004876    1.00   0.00  0.00  0.00  0.99  0.00  0.00  0.00  0.95  0.00
  HS02004842HS02004848    1.00   0.00  0.05  0.00  0.95  0.00  0.00  0.00  0.55  0.00
  HS02004837HS02004842    1.00   0.00  0.00  0.00  1.00  0.00  0.00  0.00  0.11  0.00
  HS02004830HS02004837    1.00   0.00  0.00  0.00  1.00  0.00  0.00  0.00  0.99  0.00
  HS02004824HS02004830    1.00   0.00  0.00  0.00  1.00  0.00  0.00  0.00  0.03  0.00
  HS02004817HS02004824    1.00   0.00  0.00  0.00  1.00  0.00  0.00  0.00  0.85  0.00
  HS02004770HS02004777    1.00   0.00  0.05  0.00  0.95  0.00  0.00  0.00  0.02  0.00
  HS02004799HS02004480    1.00   0.00  0.02  0.00  0.94  0.00  0.05  0.00  0.00  0.00
  HS02004792HS02004799    1.00   0.00  0.00  0.00  0.99  0.01  0.00  0.00  0.95  0.00
  HS02004788HS02004792    1.00   0.00  0.00  0.00  0.99  0.01  0.00  0.00  0.98  0.00
  HS02004785HS02004788    1.00   0.00  0.00  0.00  1.00  0.00  0.00  0.00  0.00  0.00
  HS02004777HS02004785    1.00   0.00  0.00  0.00  1.00  0.00  0.00  0.00  0.11  0.00
  HS02004480HS02004478    1.00   0.06  0.00  0.00  0.50  0.00  0.00  0.44  0.00  0.00
  HS02004479HS02004480    1.00   0.02  0.00  0.00  0.98  0.00  0.00  0.00  0.10  0.00
  HS02004862HS02004870    1.00   0.00  0.00  0.00  1.00  0.00  0.00  0.00  0.02  0.00
  HS02004848HS02004852    1.00   0.05  0.00  0.00  0.95  0.00  0.00  0.00  0.78  0.00
  HS02004856HS02004862    1.00   0.00  0.07  0.00  0.93  0.00  0.00  0.00  0.85  0.00
  HS02004852HS02004856    1.00   0.05  0.00  0.00  0.94  0.00  0.00  0.00  0.70  0.00
  HS02004802HS02004478    1.00   0.06  0.00  0.00  0.94  0.00  0.00  0.00  0.02  0.00
  HS02004478WS02006287    1.00   0.06  0.00  0.00  0.56  0.38  0.00  0.00  0.60  0.00
  HS02004817HS02004807    1.00   0.00  0.05  0.00  0.95  0.00  0.00  0.00  0.01  0.00
  HS02004807HS02004802    1.00   0.05  0.00  0.00  0.94  0.00  0.00  0.01  0.00  0.00
  YS02001759YS02001757    1.00   0.00  0.00  0.00  1.00  0.00  0.00  0.00  0.15  0.00
  YS02001762YS02001759    1.00   0.00  0.00  0.00  1.00  0.00  0.00  0.00  0.02  0.00
  YS02001765YS02001762    1.00   0.00  0.00  0.00  1.00  0.00  0.00  0.00  0.13  0.00
  YS02001770YS02001767    1.00   0.00  0.00  0.00  1.00  0.00  0.00  0.00  0.00  0.00
  YS02001774YS02001770    1.00   0.00  0.05  0.00  0.94  0.00  0.00  0.00  0.02  0.00
  YS02001779YS02001774    1.00   0.00  0.00  0.00  1.00  0.00  0.00  0.00  0.16  0.00
  YS02001649YS02001757    1.00   0.00  0.00  0.00  1.00  0.00  0.00  0.00  0.15  0.00
  YS02001767YS02001765    1.00   0.00  0.00  0.00  1.00  0.00  0.00  0.00  0.00  0.00
  YS02006561YS02001783    1.00   0.07  0.00  0.00  0.47  0.46  0.00  0.00  0.36  0.00
  YS02001783YS02001784    1.00   0.00  0.07  0.00  0.93  0.00  0.00  0.00  0.00  0.00
  YS02001784YS02001785    1.00   0.00  0.00  0.00  1.00  0.00  0.00  0.00  0.15  0.00
  YS02001788YS02001790    1.00   0.00  0.00  0.00  0.51  0.49  0.00  0.00  0.33  0.00
  YS02001790YS02001791    1.00   0.00  0.00  0.00  0.42  0.58  0.00  0.00  0.44  0.00
  YS02001791YS02001793    1.00   0.00  0.00  0.00  0.43  0.57  0.00  0.00  0.01  0.00
  YS02001910YS02001907    1.00   0.00  0.00  0.00  0.98  0.00  0.00  0.01  0.11  0.00
  YS02001786YS02001788    1.00   0.00  0.00  0.00  0.52  0.48  0.00  0.00  0.00  0.00
  YS02001915YS02001910    1.00   0.00  0.00  0.00  0.99  0.01  0.00  0.00  0.13  0.00
  YS02001918YS02001915    1.00   0.00  0.00  0.00  0.99  0.01  0.00  0.00  0.46  0.00
  YS02001923YS02001920    1.00   0.00  0.00  0.00  1.00  0.00  0.00  0.00  0.67  0.00
  YS02001926YS02001923    1.00   0.00  0.03  0.00  0.38  0.00  0.58  0.00  0.00  0.00
  YS02001929YS02001926    1.00   0.00  0.05  0.00  0.95  0.00  0.00  0.00  0.59  0.00
  YS02001920YS02001918    1.00   0.00  0.00  0.00  1.00  0.00  0.00  0.00  0.00  0.00
  YS02001629YS02163301    1.00   0.06  0.00  0.00  0.94  0.00  0.00  0.00  0.00  0.00
  YS02001619YS02001622    1.00   0.05  0.00  0.00  0.95  0.00  0.00  0.00  0.00  0.00
  YS02001622YS02001625    1.00   0.05  0.00  0.00  0.94  0.00  0.00  0.00  0.03  0.00
  YS02001625YS02001629    1.00   0.06  0.02  0.00  0.90  0.00  0.02  0.00  0.00  0.00
  YS02163301YS02001633    1.00   0.00  0.06  0.00  0.94  0.00  0.00  0.00  0.00  0.00
  YS02163601YS02164001    1.00   0.00  0.04  0.00  0.96  0.00  0.00  0.00  0.00  0.00
  YS02164001YS02001641    1.00   0.01  0.03  0.00  0.96  0.00  0.00  0.00  0.05  0.00
  YS02001641YS02001644    1.00   0.00  0.00  0.00  1.00  0.00  0.00  0.00  0.00  0.00
  YS02001647YS02001649    1.00   0.00  0.07  0.00  0.93  0.00  0.00  0.00  0.01  0.00
  YS02006553YS02006556    1.00   0.01  0.00  0.00  0.99  0.00  0.00  0.00  0.03  0.00
  YS02006556YS02006558    1.00   0.00  0.00  0.00  1.00  0.00  0.00  0.00  0.00  0.00
  YSB6556YSB1171          1.00   0.02  0.03  0.00  0.95  0.00  0.00  0.00  0.00  0.00
  YS02001907YS02006553    1.00   0.00  0.01  0.00  0.99  0.00  0.00  0.00  0.00  0.00
  YS02006558YS02006561    1.00   0.07  0.00  0.00  0.40  0.53  0.00  0.00  0.39  0.00
  YS02001633YS02163601    1.00   0.00  0.01  0.00  0.99  0.00  0.00  0.00  0.14  0.00
  YS02001644YS02001647    1.00   0.00  0.07  0.00  0.93  0.00  0.00  0.00  0.00  0.00
  YS02001745YS02001748    1.00   0.00  0.00  0.00  0.88  0.00  0.00  0.11  0.02  0.00
  YS02001748YS02001751    1.00   0.00  0.00  0.00  0.96  0.04  0.00  0.00  0.13  0.00
  YS02001751YS02001754    1.00   0.00  0.00  0.00  0.92  0.00  0.00  0.08  0.01  0.00
  YS02001754YS02001757    1.00   0.00  0.00  0.00  1.00  0.00  0.00  0.00  0.16  0.00
  YS02001882YS02001884    1.00   0.06  0.00  0.00  0.94  0.00  0.00  0.00  0.00  0.00
  YS02001884YS02001887    1.00   0.03  0.02  0.00  0.95  0.00  0.00  0.00  0.00  0.00
  YS02001890YS02001895    1.00   0.00  0.06  0.00  0.94  0.00  0.00  0.00  0.00  0.00
  YS02001895YS02001898    1.00   0.06  0.00  0.00  0.92  0.00  0.01  0.00  0.00  0.00
  YS02001898YS02001901    1.00   0.06  0.00  0.00  0.94  0.00  0.00  0.00  0.01  0.00
  YS02001901YS02001904    1.00   0.06  0.00  0.00  0.93  0.00  0.00  0.00  0.00  0.00
  YS02001904YS02001907    1.00   0.00  0.06  0.00  0.93  0.00  0.00  0.00  0.00  0.00
  YS02001887YS02001890    1.00   0.00  0.00  0.00  0.98  0.00  0.01  0.00  0.00  0.00
  YS02001652YS02001649    1.00   0.00  0.00  0.00  1.00  0.00  0.00  0.00  0.14  0.00
  YS02001655YS02001652    1.00   0.00  0.00  0.00  0.92  0.00  0.00  0.08  0.01  0.00
  YS02001658YS02001655    1.00   0.00  0.06  0.00  0.90  0.04  0.00  0.00  0.02  0.00
  YS02001661YS02001658    1.00   0.06  0.00  0.00  0.88  0.06  0.00  0.00  0.01  0.00
  YS02001664YS02001661    1.00   0.05  0.00  0.00  0.88  0.07  0.00  0.00  0.11  0.00
  YSB1154YSB6556          1.00   0.05  0.00  0.00  0.95  0.00  0.00  0.00  0.01  0.00
  YSB1174YSB1171          1.00   0.02  0.02  0.00  0.96  0.00  0.00  0.00  0.00  0.00
  YSB1171HS02004479       1.00   0.02  0.00  0.00  0.97  0.00  0.00  0.01  0.09  0.00
  HS02004881HS02006253    1.00   0.02  0.00  0.00  0.00  0.07  0.00  0.90  0.04  0.00
  YS02001793JiankangQianchi    1.00   0.00  0.00  0.00  0.48  0.51  0.00  0.00  0.07  0.00
  YS02001757CaochengTiaoxuchi    1.00   0.00  0.09  0.00  0.85  0.05  0.00  0.00  0.00  0.00
  WSF200WS02003060        1.00   0.00  0.11  0.00  0.01  0.88  0.00  0.00  0.56  0.00
  1                       1.00   0.00  0.00  0.00  0.00  1.00  0.00  0.00  0.37  0.00
  
  
  *************************
  Conduit Surcharge Summary
  *************************
  
  ----------------------------------------------------------------------------
                                                           Hours        Hours 
                         --------- Hours Full --------   Above Full   Capacity
  Conduit                Both Ends  Upstream  Dnstream   Normal Flow   Limited
  ----------------------------------------------------------------------------
  WS02006229WS02006228        1.19      1.21      1.19      1.59         1.19
  WS02006256WS02006235        0.53      0.53      6.66      6.62         0.01
  WS02006235WS02006234        0.01      0.01      0.01      1.19         0.01
  WS02006234WS02006232        0.01      0.01      0.24      0.01         0.01
  WS02006232WS02006231        0.12      0.12      0.24      0.01         0.01
  WS02006231WS02006230        0.15      0.26      0.15      1.32         0.15
  WS02006230WS02006229        1.35      1.35      1.36      1.38         0.04
  WS02006228WS02006109        1.20      1.28      1.20      1.85         1.20
  WS02006116WS02004401        0.27      0.27      0.27      0.21         0.20
  WS02006115WS02006116        0.13      0.13      0.14      0.01         0.01
  WS02006112WS02006115        0.10      0.10      0.95      0.01         0.01
  WS02006111WS02006112        0.01      0.01      1.65      0.01         0.01
  WS02006110WS02006113        0.01      0.01      1.24      0.01         0.01
  WS02006109WS02006110        0.67      0.67      1.28      0.67         0.01
  WS02004411WS02004412        0.01      0.01      0.01      0.25         0.01
  WS02004401WS02004402        0.27      0.27      0.31      0.01         0.01
  WS02004410WS02004411        0.01      0.01      0.01      0.19         0.01
  WS02004409WS02004410        0.01      0.01      0.01      0.05         0.01
[...]
  YS02001784YS02001785        2.66      2.75      2.66      3.50         2.66
  YS02001788YS02001790        2.52      2.52      2.60      0.01         0.01
  YS02001790YS02001791        2.60      2.60      2.63      2.16         1.96
  YS02001791YS02001793        2.63      2.63      2.75      0.01         0.01
  YS02001910YS02001907        2.58      2.58      2.97      0.01         0.01
  YS02001786YS02001788        2.52      2.66      2.52      3.12         2.52
  YS02001915YS02001910        2.38      2.38      2.58      0.01         0.01
  YS02001918YS02001915        2.14      2.14      2.38      0.01         0.01
  YS02001923YS02001920        1.98      1.98      2.17      0.01         0.01
  YS02001926YS02001923        0.01      0.01      0.01      0.01         0.01
  YS02001929YS02001926        0.01      0.01      0.01      0.01         0.01
  YS02001920YS02001918        2.14      2.14      2.17      0.01         0.01
  YS02001629YS02163301        6.30      6.30      6.30      0.01         0.01
  YS02001619YS02001622        6.15      6.15      6.15      0.55         0.56
  YS02001622YS02001625        6.15      6.15      6.29      0.01         0.01
  YS02001625YS02001629        6.14      6.14      6.29      0.01         0.01
  YS02163301YS02001633        6.30      6.30      6.32      0.01         0.01
  YS02163601YS02164001        6.32      6.32      6.34      0.01         0.01
  YS02164001YS02001641        6.32      6.32      6.32      0.01         0.01
  YS02001641YS02001644        6.32      6.32      6.32      2.99         2.93
  YS02001647YS02001649        6.28      6.28      6.34      0.01         0.01
  YS02006553YS02006556        2.78      2.78      3.07      0.01         0.01
  YS02006556YS02006558        2.87      2.87      3.11      0.01         0.01
  YSB6556YSB1171              0.01      0.01      0.86      0.01         0.01
  YS02001907YS02006553        3.54      3.54      3.74      0.01         0.01
  YS02006558YS02006561        2.41      2.74      2.41      3.36         2.41
  YS02001633YS02163601        6.32      6.32      6.34      0.01         0.01
  YS02001644YS02001647        6.28      6.28      6.32      0.01         0.01
  YS02001745YS02001748        1.18      1.18      6.05      0.01         0.01
  YS02001748YS02001751        6.08      6.08      6.13      0.01         0.01
  YS02001751YS02001754        6.13      6.13      6.26      0.01         0.01
  YS02001754YS02001757        6.28      6.28      6.38      0.01         0.01
  YS02001882YS02001884        2.39      2.39      2.42      0.01         0.01
  YS02001884YS02001887        2.48      2.48      2.50      0.01         0.01
  YS02001890YS02001895        2.36      2.36      2.60      0.01         0.01
  YS02001895YS02001898        2.35      2.35      2.36      0.01         0.01
  YS02001898YS02001901        2.37      2.37      2.47      0.01         0.01
  YS02001901YS02001904        2.45      2.45      2.47      0.01         0.01
  YS02001904YS02001907        2.45      2.45      3.08      0.01         0.01
  YS02001887YS02001890        2.53      2.53      2.56      1.25         0.01
  YS02001652YS02001649        6.28      6.28      6.34      0.01         0.01
  YS02001655YS02001652        6.15      6.15      6.28      0.01         0.01
  YS02001658YS02001655        6.07      6.07      6.15      0.01         0.01
  YS02001661YS02001658        1.25      1.25      6.07      0.01         0.01
  YS02001664YS02001661        0.01      0.01      1.93      0.01         0.01
  YSB1174YSB1171              0.01      0.01      0.55      0.01         0.01
  YSB1171HS02004479           0.01      0.01      0.04      0.01         0.01
  YS02001793JiankangQianchi        2.71      2.71      3.25      0.01         0.01
  YS02001757CaochengTiaoxuchi        5.85      5.85      6.38      0.01         0.01
  
  
  ***************
  Pumping Summary
  ***************
  
  ---------------------------------------------------------------------------------------------------------
                                                  Min       Avg       Max     Total     Power    % Time Off
                        Percent   Number of      Flow      Flow      Flow    Volume     Usage    Pump Curve
  Pump                 Utilized   Start-Ups       LPS       LPS       LPS  10^6 ltr     Kw-hr    Low   High
  ---------------------------------------------------------------------------------------------------------
  CC-Pump-1                0.00           0      0.00      0.00      0.00     0.000      0.00    0.0    0.0
  CC-Pump-2                0.00           0      0.00      0.00      0.00     0.000      0.00    0.0    0.0
  JK-Pump-1                0.00           0      0.00      0.00      0.00     0.000      0.00    0.0    0.0
  JK-Pump-2              100.00           1      0.00    460.73    683.00    11.376    143.13    0.0   98.2
  XR-Pump-1                0.00           0      0.00      0.00      0.00     0.000      0.00    0.0    0.0
  XR-Pump-2              100.00           1      0.00     95.00     95.00     2.736     16.01    0.0    0.0
  XR-Pump-3              100.00           1      0.00     95.00     95.00     2.736     16.01    0.0    0.0
  XR-Pump-4                0.00           0      0.00      0.00      0.00     0.000      0.00    0.0    0.0
  
  
  ***************************
  Link Pollutant Load Summary
  ***************************
  
  ------------------------------------------------------------------------------------------
                                 COD            SS            TN            TP         NH4-N
  Link                            kg            kg            kg            kg            kg
  ------------------------------------------------------------------------------------------
  WS02003066WSF200           596.951      1176.645        15.642         1.390         8.184
  WS02006287WS02006284       730.010      1453.545        18.779         1.654         9.786
  WS02006284WS02006280       730.435      1454.144        18.827         1.660         9.817
  WS02006280WS02006229       730.440      1454.178        18.825         1.659         9.815
  WS02006229WS02006228       567.774      1117.404        15.338         1.380         8.086
  WS02006256WS02006235       418.728       811.341         8.571         0.625         4.213
  WS02006253WS02006251       130.906       268.095         2.745         0.198         1.335
  WS02006252WS02006251         0.000         0.000         0.000         0.000         0.000
  WS02006251WS02006249        17.604        36.335         0.362         0.026         0.175
  WS02006249WS02006248        17.511        36.127         0.360         0.026         0.174
  WS02006248WS02006247        17.548        36.217         0.360         0.026         0.174
  WS02006247WS02006245        17.525        36.172         0.359         0.026         0.174
  WS02006245WS02006243        17.499        36.130         0.359         0.026         0.174
  WS02006243WS02006242        17.565        36.288         0.359         0.026         0.174
  WS02006242WS02006240        17.554        36.268         0.358         0.025         0.173
  WS02006240WS02006239        17.510        36.186         0.357         0.025         0.173
  WS02006239WS02006238        17.403        35.994         0.354         0.025         0.171
  WS02006238WS02006235        17.497        36.180         0.357         0.025         0.172
  WS02006235WS02006234       196.737       398.753         4.219         0.331         2.088
  WS02006234WS02006232       197.452       400.122         4.237         0.332         2.097
  WS02006232WS02006231       198.394       401.878         4.261         0.334         2.109
  WS02006231WS02006230       199.031       403.076         4.277         0.336         2.118
  WS02006230WS02006229       200.758       406.243         4.322         0.339         2.141
  WS02006228WS02006109       567.126      1116.411        15.268         1.371         8.042
  WS02006116WS02004401       603.649      1187.181        16.298         1.472         8.594
  WS02006115WS02006116       604.182      1187.974        16.366         1.481         8.637
  WS02006113WS02006111       574.247      1127.890        15.944         1.456         8.464
  WS02006112WS02006115       604.842      1189.095        16.421         1.487         8.672
  WS02006111WS02006112       574.037      1127.545        15.915         1.452         8.446
  WS02006110WS02006113       574.445      1128.210        15.959         1.458         8.474
  WS02006109WS02006110       575.147      1129.326        16.028         1.466         8.517
  WS02004411WS02004412       598.648      1179.347        15.803         1.410         8.285
  WS02004401WS02004402       602.797      1185.778        16.223         1.463         8.548
  WS02004413WS02003067       597.403      1177.372        15.681         1.394         8.208
  WS02004412WS02004413       598.077      1178.458        15.743         1.402         8.247
  WS02004410WS02004411       599.017      1179.909        15.844         1.415         8.311
  WS02004409WS02004410       599.294      1180.332        15.876         1.419         8.331
  WS02004407WS02004409       599.505      1180.631        15.902         1.422         8.347
  WS02004406WS02004407       599.549      1180.644        15.912         1.424         8.353
  WS02004405WS02004406       601.188      1183.291        16.060         1.442         8.445
  WS02004404WS02004405       601.862      1184.295        16.136         1.452         8.493
  WS02004403WS02004404       601.212      1183.227        16.075         1.444         8.455
  WS02004402WS02004403       601.987      1184.497        16.143         1.453         8.498
  WS02004139WS02001211       128.209       235.073         7.207         0.835         4.317
  WS02004138WS02004139       719.086      1246.758        49.537         5.885        30.080
  WS02003067WS02003066       596.946      1176.623        15.644         1.390         8.185
  WS02001213WS02003059        80.425       158.633         2.604         0.260         1.439
  WS02001212WS02001213        77.624       154.363         2.305         0.222         1.251
  WS02001211WS02001212        76.943       152.924         2.303         0.223         1.253
  WS02003072WS02003073       633.733      1204.372        24.539         2.571        13.943
  WS02003069WS02003072       634.899      1206.173        24.667         2.588        14.024
  WS02003060WS02003069       633.105      1203.265        24.501         2.567        13.921
  WS02003059WS02003060        84.709       166.886         2.718         0.270         1.498
  HS02004901HS02004770        34.764        69.683         0.686         0.053         0.328
  HS02004876HS02004881       112.330       230.417         2.384         0.171         1.159
  HS02004870HS02004876        86.528       177.771         1.881         0.135         0.915
  HS02004842HS02004848        16.437        32.898         0.344         0.024         0.161
  HS02004837HS02004842        21.123        40.373         0.814         0.083         0.457
  HS02004830HS02004837       108.206       200.406         5.494         0.621         3.255
  HS02004824HS02004830       109.056       201.836         5.570         0.630         3.301
  HS02004817HS02004824       170.915       330.996         6.836         0.712         3.918
  HS02004770HS02004777       133.534       272.310         2.790         0.197         1.312
  HS02004799HS02004480       418.197       836.220         9.511         0.777         4.730
  HS02004792HS02004799       383.577       764.484         8.873         0.736         4.427
  HS02004788HS02004792       199.727       399.819         5.128         0.437         2.618
  HS02004785HS02004788       134.960       274.570         2.939         0.216         1.406
  HS02004777HS02004785       134.303       273.555         2.876         0.208         1.366
  HS02004480HS02004478       516.012      1032.653        11.342         0.916         5.617
  HS02004479HS02004480       101.552       202.596         2.137         0.177         1.078
  HS02004862HS02004870        67.367       137.117         1.491         0.111         0.726
  HS02004848HS02004852        30.525        62.001         0.624         0.044         0.293
  HS02004856HS02004862        46.955        96.312         0.955         0.066         0.454
  HS02004852HS02004856        30.539        62.025         0.625         0.044         0.293
  HS02004802HS02004478       214.898       422.281         7.504         0.746         4.210
  HS02004478WS02006287       730.090      1453.575        18.796         1.656         9.797
  HS02004817HS02004807       169.778       329.276         6.708         0.696         3.838
  HS02004807HS02004802       215.096       422.624         7.536         0.750         4.230
  YS02001759YS02001757       569.177      1119.548        11.012         0.789         5.373
  YS02001762YS02001759       412.306       799.327         8.285         0.596         4.063
  YS02001765YS02001762       414.792       805.365         8.341         0.600         4.093
  YS02001770YS02001767       423.681       826.248         8.420         0.600         4.117
  YS02001774YS02001770       830.712      1652.640        16.529         1.139         8.050
  YS02001779YS02001774       830.695      1652.700        16.611         1.151         8.106
  YS02001649YS02001757       870.597      1686.421        17.556         1.207         8.526
  YS02001767YS02001765       418.341       813.621         8.409         0.605         4.127
  YS02006561YS02001783      1539.763      2951.886        32.367         2.386        16.004
  YS02001783YS02001784      1539.749      2951.916        32.364         2.386        16.002
  YS02001784YS02001785      1547.369      2964.215        33.094         2.477        16.459
  YS02001788YS02001790      1548.177      2965.649        33.171         2.487        16.507
  YS02001790YS02001791      1549.396      2967.796        33.274         2.500        16.571
  YS02001791YS02001793      1549.357      2967.742        33.270         2.499        16.569
  YS02001910YS02001907      1049.202      2064.330        22.283         1.593        11.074
  YS02001786YS02001788      1547.720      2964.896        33.125         2.481        16.478
  YS02001915YS02001910      1049.171      2064.213        22.238         1.587        11.043
  YS02001918YS02001915       514.400       975.800        11.349         0.920         5.792
  YS02001923YS02001920       490.723       936.300         9.309         0.670         4.525
  YS02001926YS02001923       488.546       932.507         9.211         0.659         4.468
  YS02001929YS02001926       487.545       930.776         9.156         0.653         4.435
  YS02001920YS02001918       511.601       969.984        11.271         0.914         5.750
  YS02001629YS02163301       300.618       583.301         5.823         0.421         2.793
  YS02001619YS02001622       504.122       985.178        10.114         0.691         4.789
  YS02001622YS02001625       503.139       983.672        10.088         0.689         4.777
  YS02001625YS02001629       297.421       577.043         5.764         0.415         2.762
  YS02163301YS02001633       304.483       590.602         5.893         0.427         2.829
  YS02163601YS02164001       728.789      1380.500        14.280         1.052         6.909
  YS02164001YS02001641       728.722      1380.417        14.267         1.051         6.901
  YS02001641YS02001644       729.651      1382.001        14.277         1.052         6.905
  YS02001647YS02001649       986.355      1892.253        20.186         1.417         9.730
  YS02006553YS02006556       678.346      1237.554        15.320         1.165         7.720
  YS02006556YS02006558       679.290      1239.644        15.305         1.161         7.706
  YSB6556YSB1171              59.433       118.735         1.193         0.096         0.595
  YS02001907YS02006553       677.562      1235.753        15.327         1.167         7.729
  YS02006558YS02006561      1539.629      2951.608        32.364         2.386        16.003
  YS02001633YS02163601       729.259      1381.184        14.254         1.048         6.890
  YS02001644YS02001647       992.536      1904.483        20.281         1.424         9.775
  YS02001745YS02001748       663.093      1324.645        13.139         0.851         6.348
  YS02001748YS02001751       662.507      1323.687        13.147         0.854         6.357
  YS02001751YS02001754       661.713      1322.440        13.132         0.853         6.350
  YS02001754YS02001757       662.693      1323.998        13.301         0.876         6.460
  YS02001882YS02001884         3.673         6.468         0.071         0.005         0.035
  YS02001884YS02001887         7.234        12.984         0.138         0.010         0.068
  YS02001890YS02001895       763.399      1476.896        14.725         1.127         7.228
  YS02001895YS02001898       763.391      1476.985        14.721         1.127         7.225
  YS02001898YS02001901       763.251      1476.700        14.719         1.126         7.224
  YS02001901YS02001904       763.251      1476.772        14.729         1.128         7.231
  YS02001904YS02001907       763.626      1477.307        14.787         1.135         7.268
  YS02001887YS02001890      1205.587      2378.537        22.924         1.759        11.237
  YS02001652YS02001649       628.124      1230.450        12.562         0.922         5.946
  YS02001655YS02001652       628.938      1231.692        12.585         0.924         5.957
  YS02001658YS02001655       628.630      1231.130        12.503         0.912         5.903
  YS02001661YS02001658       629.417      1232.360        12.524         0.914         5.912
  YS02001664YS02001661       629.730      1232.715        12.535         0.914         5.917
  YSB1154YSB6556              59.103       118.311         1.148         0.091         0.566
  YSB1174YSB1171              40.714        81.713         0.817         0.065         0.404
  YSB1171HS02004479          101.493       202.496         2.143         0.178         1.082
  HS02004881HS02006253       125.123       256.787         2.638         0.189         1.282
  YS02001793JiankangQianchi      1549.536      2968.098        33.271         2.499        16.569
  YS02001757CaochengTiaoxuchi       552.509      1077.354        10.292         0.710         4.936
  WSF200WS02003060           596.851      1176.488        15.634         1.389         8.179
  1                          646.000      1223.940        25.742         2.723        14.697
  CC-Pump-1                    0.000         0.000         0.000         0.000         0.000
  CC-Pump-2                    0.000         0.000         0.000         0.000         0.000
  JK-Pump-1                    0.000         0.000         0.000         0.000         0.000
  JK-Pump-2                 1052.184      2037.626        21.559         1.573        10.600
  XR-Pump-1                    0.000         0.000         0.000         0.000         0.000
  XR-Pump-2                  359.933       624.037        24.798         2.946        15.058
  XR-Pump-3                  359.933       624.037        24.798         2.946        15.058
  XR-Pump-4                    0.000         0.000         0.000         0.000         0.000
  3                          113.955       232.877         2.438         0.179         1.194
  5                          598.389      1183.441        12.372         0.925         6.088
  6                          849.285      1485.075        56.927         6.743        34.510
  

  Analysis begun on:  Thu Jul  8 15:33:42 2021
  Analysis ended on:  Thu Jul  8 15:33:44 2021
  Total elapsed time: 00:00:02