
  EPA STORM WATER MANAGEMENT MODEL - VERSION 5.1 (Build 5.3.0.dev0)
  --------------------------------------------------------------

  WARNING 04: minimum elevation drop used for Conduit WS02004404WS02004405
  WARNING 03: negative offset ignored for Link YS02001904YS02001907
  
  *********************************************************
  NOTE: The summary statistics displayed in this report are
  based on results found at every computational time step,  
  not just on results from each reporting time step.
  *********************************************************
  
  ****************
  Analysis Options
  ****************
  Flow Units ............... LPS
  Process Models:
    Rainfall/Runoff ........ YES
    RDII ................... NO
    Snowmelt ............... NO
    Groundwater ............ NO
    Flow Routing ........... YES
    Ponding Allowed ........ NO
    Water Quality .......... YES
  Infiltration Method ...... HORTON
  Flow Routing Method ...... DYNWAVE
  Surcharge Method ......... EXTRAN
  Starting Date ............ 08/28/2015 08:00:00
  Ending Date .............. 08/28/2015 16:00:00
  Antecedent Dry Days ...... 8.0
  Report Time Step ......... 00:01:00
  Wet Time Step ............ 00:01:00
  Dry Time Step ............ 00:01:00
  Routing Time Step ........ 5.00 sec
  Variable Time Step ....... YES
  Maximum Trials ........... 8
  Number of Threads ........ 4
  Head Tolerance ........... 0.001500 m
  
  
  **************************        Volume         Depth
  Runoff Quantity Continuity     hectare-m            mm
  **************************     ---------       -------
  Total Precipitation ......         8.849        19.374
  Evaporation Loss .........         0.000         0.000
  Infiltration Loss ........         1.283         2.810
  Surface Runoff ...........         6.536        14.309
  Final Storage ............         1.031         2.257
  Continuity Error (%) .....        -0.015
  
  
  **************************           COD            SS            TN            TP         NH4-N
  Runoff Quality Continuity             kg            kg            kg            kg            kg
  **************************    ----------    ----------    ----------    ----------    ----------
  Initial Buildup ..........     41378.656     70582.865      1804.177       168.684      1032.807
  Surface Buildup ..........        37.682        81.699         2.542         0.226         1.439
  Wet Deposition ...........         0.000         0.000         0.000         0.000         0.000
  Sweeping Removal .........         0.000         0.000         0.000         0.000         0.000
  Infiltration Loss ........       147.005       285.814         2.849         0.204         1.368
  BMP Removal ..............         0.000         0.000         0.000         0.000         0.000
  Surface Runoff ...........      7025.177     13610.698       136.014         9.496        65.021
  Remaining Buildup ........     34241.510     56762.910      1667.801       159.206       967.831
  Continuity Error (%) .....         0.006         0.007         0.003         0.002         0.003
  
  
  **************************        Volume        Volume
  Flow Routing Continuity        hectare-m      10^6 ltr
  **************************     ---------     ---------
  Dry Weather Inflow .......         0.630         6.296
  Wet Weather Inflow .......         6.534        65.346
  Groundwater Inflow .......         0.000         0.000
  RDII Inflow ..............         0.000         0.000
  External Inflow ..........         0.105         1.045
  External Outflow .........         3.215        32.152
  Flooding Loss ............         3.984        39.839
  Evaporation Loss .........         0.000         0.000
  Exfiltration Loss ........         0.000         0.000
  Initial Stored Volume ....         0.076         0.761
  Final Stored Volume ......         0.513         5.134
  Continuity Error (%) .....        -5.007
  
  
  **************************           COD            SS            TN            TP         NH4-N
  Quality Routing Continuity            kg            kg            kg            kg            kg
  **************************    ----------    ----------    ----------    ----------    ----------
  Dry Weather Inflow .......      1573.993      2518.389       151.103        18.888        94.440
  Wet Weather Inflow .......      7024.874     13610.322       136.006         9.496        65.017
  Groundwater Inflow .......         0.000         0.000         0.000         0.000         0.000
  RDII Inflow ..............         0.000         0.000         0.000         0.000         0.000
  External Inflow ..........       187.321       299.713        17.983         2.248        11.239
  External Outflow .........      3375.784      6211.433       149.586        16.218        86.847
  Flooding Loss ............      4541.726      8743.129       115.060        10.067        60.322
  Exfiltration Loss ........         0.000         0.000         0.000         0.000         0.000
  Mass Reacted .............         0.000         0.000         0.000         0.000         0.000
  Initial Stored Mass ......         0.000         0.000         0.000         0.000         0.000
  Final Stored Mass ........       431.015       739.432        20.745         2.250        12.105
  Continuity Error (%) .....         4.981         4.470         6.457         6.845         6.691
  
  
  *************************
  Highest Continuity Errors
  *************************
  Node JK-storage (-25.76%)
  Node HS02004842 (9.52%)
  Node YS02001884 (9.27%)
  Node WS02003059 (4.19%)
  Node HS02004817 (1.88%)
  
  
  ***************************
  Time-Step Critical Elements
  ***************************
  Link YS02001793JiankangQianchi (48.86%)
  Link WS02006280WS02006229 (28.50%)
  Link YS02006556YS02006558 (4.63%)
  Link YS02001661YS02001658 (1.98%)
  Link WS02006256WS02006235 (1.74%)
  
  
  ********************************
  Highest Flow Instability Indexes
  ********************************
  Link WS02006252WS02006251 (41)
  Link YS02163601YS02164001 (38)
  Link YS02001629YS02163301 (36)
  Link YS02163301YS02001633 (35)
  Link YS02164001YS02001641 (35)
  
  
  *************************
  Routing Time Step Summary
  *************************
  Minimum Time Step           :     0.50 sec
  Average Time Step           :     2.00 sec
  Maximum Time Step           :     5.00 sec
  Percent in Steady State     :    -0.00
  Average Iterations per Step :     4.17
  Percent Not Converging      :    20.38
  
  
  ***************************
  Subcatchment Runoff Summary
  ***************************
  
  ------------------------------------------------------------------------------------------------------------------------------
                            Total      Total      Total      Total     Imperv       Perv      Total       Total     Peak  Runoff
                           Precip      Runon       Evap      Infil     Runoff     Runoff     Runoff      Runoff   Runoff   Coeff
  Subcatchment                 mm         mm         mm         mm         mm         mm         mm    10^6 ltr      LPS
  ------------------------------------------------------------------------------------------------------------------------------
  sub0                      19.37       0.00       0.00       0.72      17.97       0.64      18.61        0.02     3.90   0.961
  sub1                      19.37       0.00       0.00       1.22      17.15       0.91      18.07        0.12    27.82   0.932
  sub2                      19.37       0.00       0.00       5.12      12.12       2.04      14.17        0.13    27.41   0.731
  sub3                      19.37       0.00       0.00       5.40      12.09       1.77      13.85        0.31    61.11   0.715
  sub4                      19.37       0.00       0.00       1.34      17.00       0.79      17.79        0.37    71.85   0.918
  sub5                      19.37       0.00       0.00       0.75      17.92       0.60      18.53        0.21    48.63   0.956
  sub7                      19.37       0.00       0.00       0.95      17.57       0.79      18.36        0.06    15.22   0.948
  sub8                      19.37       0.00       0.00       0.96      17.56       0.78      18.34        0.12    28.21   0.947
  sub9                      19.37       0.00       0.00       0.97      17.56       0.78      18.34        0.09    21.14   0.946
  sub10                     19.37       0.00       0.00       0.86      17.74       0.69      18.43        0.20    47.68   0.951
  sub11                     19.37       0.00       0.00       0.85      17.76       0.70      18.46        0.21    51.98   0.953
  sub12                     19.37       0.00       0.00       1.38      16.81       1.14      17.95        0.16    39.99   0.926
  sub14                     19.37       0.00       0.00       0.97      17.56       0.78      18.33        0.17    41.67   0.946
  sub15                     19.37       0.00       0.00       3.73      13.50       2.09      15.59        0.27    60.70   0.805
  sub16                     19.37       0.00       0.00       3.89      12.94       2.51      15.45        0.16    38.89   0.797
  sub17                     19.37       0.00       0.00       3.79      13.13       2.41      15.54        0.13    31.85   0.802
  sub22                     19.37       0.00       0.00       5.58      11.00       2.75      13.75        0.87   192.54   0.710
  sub23                     19.37       0.00       0.00       4.60      12.16       2.57      14.73        0.70   160.90   0.760
  sub60                     19.37       0.00       0.00       1.90      15.08       0.42      15.50        4.70   527.40   0.800
  sub61                     19.37       0.00       0.00       2.69      14.92       0.60      15.52        4.79   614.21   0.801
  sub62                     19.37       0.00       0.00       1.14      16.34       0.41      16.74        5.15   635.44   0.864
  sub63                     19.37       0.00       0.00       4.88      12.94       0.74      13.68        4.14   558.20   0.706
  sub64                     19.37       0.00       0.00       2.46      14.50       0.45      14.95        4.54   505.23   0.771
  sub65                     19.37       0.00       0.00       2.10      14.78       0.42      15.20        4.67   514.72   0.784
  sub66                     19.37       0.00       0.00       5.10      12.33       0.52      12.85        3.94   455.07   0.663
  sub67                     19.37       0.00       0.00       1.08      16.89       0.47      17.36        5.36   754.97   0.896
  sub68                     19.37       0.00       0.00       2.12      15.60       0.59      16.19        4.98   663.31   0.836
  sub69                     19.37       0.00       0.00       2.15      15.87       0.75      16.62        3.89   601.22   0.858
  sub70                     19.37      16.97       0.00       9.19      22.45       3.16      25.61        5.86   681.27   0.705
  sub71                     19.37       0.00       0.00       1.17      16.07       0.38      16.45        3.88   456.38   0.849
  sub72                     19.37       0.00       0.00       1.12      13.80       0.23      14.04        2.86   261.48   0.724
  1                         19.37      24.94       0.00       1.40      26.96       9.21      36.16        8.50   777.79   0.816
  2                         19.37       0.00       0.00       3.09       4.70       4.14       8.84        3.54   368.53   0.456
  
  
  ****************************
  Subcatchment Washoff Summary
  ****************************
  
  ------------------------------------------------------------------------------------------
                                 COD            SS            TN            TP         NH4-N
  Subcatchment                    kg            kg            kg            kg            kg
  ------------------------------------------------------------------------------------------
  sub0                         4.283         8.394         0.077         0.006         0.038
  sub1                        18.717        37.980         0.357         0.025         0.173
  sub2                        12.812        25.592         0.267         0.018         0.124
  sub3                        31.577        62.655         0.647         0.045         0.301
  sub4                        43.822        90.496         0.870         0.054         0.420
  sub5                        42.531        84.857         0.784         0.060         0.383
  sub7                         9.354        19.205         0.180         0.012         0.087
  sub8                        13.951        29.381         0.280         0.017         0.135
  sub9                        12.010        24.915         0.235         0.015         0.114
  sub10                       34.893        70.566         0.657         0.048         0.320
  sub11                       33.652        68.785         0.644         0.045         0.313
  sub12                       29.031        58.147         0.542         0.041         0.263
  sub14                       25.777        52.943         0.497         0.034         0.241
  sub15                       36.398        72.318         0.708         0.053         0.335
  sub16                       23.578        46.709         0.455         0.035         0.216
  sub17                       21.658        42.507         0.409         0.032         0.195
  sub22                      120.179       235.339         2.299         0.176         1.085
  sub23                       67.151       135.848         1.414         0.095         0.656
  sub60                      447.354       871.503         8.821         0.558         4.245
  sub61                      554.556      1073.787        10.371         0.728         5.015
  sub62                      562.525      1106.116        10.957         0.715         5.284
  sub63                      416.378       795.395         8.243         0.592         3.862
  sub64                      575.285      1082.207        10.630         0.789         5.104
  sub65                      586.720      1107.863        10.903         0.796         5.242
  sub66                      331.376       629.588         6.668         0.447         3.139
  sub67                      829.559      1609.666        15.166         1.138         7.368
  sub68                      600.968      1173.160        11.514         0.797         5.533
  sub69                      533.267      1048.056        10.093         0.726         4.857
  sub70                      966.449      1900.133        19.563         1.395         9.276
  sub71                      370.814       736.763         7.528         0.450         3.616
  sub72                      320.309       594.540         5.967         0.418         2.880
  1                          763.204      1508.340        15.635         1.115         7.350
  2                           84.756       155.134         2.288         0.140         0.986
  ------------------------------------------------------------------------------------------
  System                    8524.892     16558.887       165.670        11.617        79.154
  
  
  ******************
  Node Depth Summary
  ******************
  
  ---------------------------------------------------------------------------------
                                 Average  Maximum  Maximum  Time of Max    Reported
                                   Depth    Depth      HGL   Occurrence   Max Depth
  Node                 Type       Meters   Meters   Meters  days hr:min      Meters
  ---------------------------------------------------------------------------------
  WS02001211           JUNCTION     0.32     0.38     5.21     0  02:04        0.38
  WS02001212           JUNCTION     0.10     0.18     5.24     0  02:03        0.18
  WS02001213           JUNCTION     0.36     0.53     5.30     0  02:02        0.53
  WS02003069           JUNCTION     0.22     0.41     4.99     0  02:05        0.41
  WS02003072           JUNCTION     0.28     0.48     4.85     0  02:05        0.48
  WS02003073           JUNCTION     0.15     0.28     4.35     0  02:06        0.28
  WS02003060           JUNCTION     0.20     0.37     5.30     0  02:03        0.37
  WS02003066           JUNCTION     0.17     0.31     5.86     0  02:01        0.31
  WS02003059           JUNCTION     0.44     0.61     5.30     0  02:02        0.61
  WS02003067           JUNCTION     0.44     0.72     6.04     0  02:01        0.72
  WS02004401           JUNCTION     0.51     0.90     6.90     0  01:57        0.90
  WS02004402           JUNCTION     0.55     0.93     6.89     0  01:57        0.92
  WS02004403           JUNCTION     0.57     0.95     6.88     0  01:57        0.93
  WS02004404           JUNCTION     0.65     1.11     6.96     0  01:57        1.00
  WS02004406           JUNCTION     0.66     0.99     6.82     0  01:59        0.99
  WS02004409           JUNCTION     0.32     0.70     6.47     0  01:59        0.70
  WS02004410           JUNCTION     0.35     0.71     6.43     0  02:00        0.71
  WS02004411           JUNCTION     0.37     0.72     6.40     0  02:00        0.71
  WS02004412           JUNCTION     0.39     0.72     6.36     0  02:00        0.72
  WS02004413           JUNCTION     0.54     0.88     6.35     0  02:00        0.88
  WS02004405           JUNCTION     0.64     1.00     6.85     0  01:58        0.99
  WS02006109           JUNCTION     0.58     0.98     7.60     0  01:56        0.98
  WS02006110           JUNCTION     0.59     0.93     7.51     0  01:59        0.93
  WS02006111           JUNCTION     0.15     0.29     7.00     0  01:58        0.29
  WS02006112           JUNCTION     0.67     1.15     7.03     0  01:57        1.10
  WS02006113           JUNCTION     0.22     0.46     7.35     0  01:58        0.46
  WS02006115           JUNCTION     0.40     0.81     6.95     0  01:58        0.81
  WS02006116           JUNCTION     0.49     0.89     6.93     0  01:57        0.88
  WS02006230           JUNCTION     0.48     0.94     7.69     0  01:57        0.94
  WS02006231           JUNCTION     0.24     0.53     7.65     0  01:58        0.53
  WS02006232           JUNCTION     0.33     0.60     7.63     0  01:58        0.60
  WS02006234           JUNCTION     0.21     0.42     7.57     0  01:58        0.42
  WS02006235           JUNCTION     0.21     0.32     7.49     0  01:59        0.32
  WS02006238           JUNCTION     0.24     0.35     7.49     0  02:00        0.35
  WS02006240           JUNCTION     0.20     0.27     7.57     0  02:00        0.27
  WS02006242           JUNCTION     0.27     0.35     7.62     0  02:00        0.35
  WS02006243           JUNCTION     0.17     0.23     7.65     0  02:00        0.23
  WS02006245           JUNCTION     0.20     0.25     7.74     0  01:59        0.25
  WS02006247           JUNCTION     0.22     0.29     7.79     0  01:58        0.29
  WS02006248           JUNCTION     0.18     0.24     7.82     0  01:58        0.24
  WS02006249           JUNCTION     0.22     0.28     7.88     0  01:57        0.28
  WS02006239           JUNCTION     0.22     0.31     7.52     0  02:00        0.31
  WS02006251           JUNCTION     0.21     0.27     7.94     0  01:57        0.27
  WS02006252           JUNCTION     0.53     0.59     8.84     0  01:58        0.59
  WS02006253           JUNCTION     0.25     0.38     8.02     0  01:56        0.38
  WS02006256           JUNCTION     2.15     2.35     9.28     0  00:00        2.35
  WS02004138           JUNCTION     0.19     0.20     7.45     0  00:00        0.19
  WS02004139           JUNCTION     0.24     0.27     5.18     0  02:04        0.27
  WS02004407           JUNCTION     0.15     0.31     6.62     0  01:59        0.31
  WS02006228           JUNCTION     0.56     1.03     7.68     0  01:58        1.02
  WS02006229           JUNCTION     0.52     1.02     7.71     0  01:57        1.02
  WS02006280           JUNCTION     0.10     0.27     8.55     0  01:57        0.27
  WS02006284           JUNCTION     0.41     0.67     9.07     0  01:57        0.67
  WS02006287           JUNCTION     0.15     0.41     9.37     0  01:57        0.41
  WSF200               JUNCTION     0.14     0.30     5.53     0  02:01        0.30
  HS02004901           JUNCTION     0.17     0.39    10.21     0  01:55        0.39
  HS02004881           JUNCTION     0.02     0.06     9.09     0  01:56        0.06
  HS02004876           JUNCTION     0.06     0.17     9.20     0  01:56        0.17
  HS02004870           JUNCTION     0.03     0.10     9.39     0  01:57        0.10
  HS02004862           JUNCTION     0.04     0.12     9.50     0  01:57        0.12
  HS02004856           JUNCTION     0.09     0.16     9.58     0  01:57        0.16
  HS02004852           JUNCTION     0.02     0.08     9.59     0  01:57        0.08
  HS02004848           JUNCTION     0.02     0.07     9.67     0  01:57        0.07
  HS02004842           JUNCTION     0.34     0.40     9.67     0  01:57        0.40
  HS02004837           JUNCTION     0.04     0.09     9.67     0  01:57        0.09
  HS02004830           JUNCTION     0.05     0.12     9.59     0  01:58        0.12
  HS02004824           JUNCTION     0.04     0.16     9.56     0  01:57        0.16
  HS02004817           JUNCTION     0.48     0.72     9.57     0  01:57        0.72
  HS02004807           JUNCTION     0.17     0.39     9.56     0  01:57        0.39
  HS02004802           JUNCTION     0.20     0.42     9.55     0  01:57        0.42
  HS02004799           JUNCTION     0.18     0.49     9.70     0  01:56        0.49
  HS02004792           JUNCTION     0.07     0.23     9.76     0  01:56        0.23
  HS02004788           JUNCTION     0.05     0.17    10.07     0  01:56        0.17
  HS02004785           JUNCTION     0.08     0.26    10.16     0  01:56        0.26
  HS02004777           JUNCTION     0.19     0.40    10.20     0  01:56        0.40
  HS02004770           JUNCTION     0.16     0.38    10.21     0  01:56        0.38
  HS02004480           JUNCTION     0.13     0.40     9.65     0  01:56        0.40
  HS02004479           JUNCTION     0.17     0.44     9.65     0  01:56        0.44
  HS02004478           JUNCTION     0.10     0.30     9.53     0  01:57        0.30
  YS02001745           JUNCTION     0.72     0.99     8.50     0  02:46        0.99
  YS02001748           JUNCTION     1.11     1.44     8.52     0  01:45        1.41
  YS02001751           JUNCTION     1.28     1.60     8.48     0  02:49        1.60
  YS02001754           JUNCTION     1.53     1.85     8.46     0  02:51        1.85
  YS02001762           JUNCTION     1.73     2.05     8.45     0  02:49        2.05
  YS02001765           JUNCTION     1.68     2.00     8.45     0  02:47        2.00
  YS02001767           JUNCTION     1.65     1.96     8.44     0  02:46        1.96
  YS02001770           JUNCTION     1.64     1.94     8.44     0  02:45        1.94
  YS02001774           JUNCTION     1.70     1.99     8.41     0  02:26        1.99
  YS02001779           JUNCTION     1.45     1.68     8.37     0  01:45        1.68
  YS02001882           JUNCTION     0.77     1.64     8.36     0  02:16        1.64
  YS02001884           JUNCTION     0.86     1.74     8.36     0  02:12        1.74
  YS02001759           JUNCTION     1.76     2.09     8.45     0  02:49        2.09
  YS02001887           JUNCTION     0.94     1.82     8.36     0  02:14        1.82
  YS02001890           JUNCTION     0.96     1.81     8.32     0  01:52        1.81
  YS02001898           JUNCTION     0.73     1.56     8.30     0  01:52        1.56
  YS02001901           JUNCTION     0.84     1.68     8.29     0  02:10        1.67
  YS02001904           JUNCTION     0.82     1.64     8.27     0  01:52        1.63
  YS02001907           JUNCTION     1.14     1.96     8.25     0  01:52        1.96
  YS02001910           JUNCTION     0.94     1.83     8.34     0  01:53        1.78
  YS02001915           JUNCTION     0.75     1.69     8.40     0  01:53        1.61
  YS02001918           JUNCTION     0.48     1.45     8.51     0  01:53        1.31
  YS02001619           JUNCTION     1.25     1.59     8.52     0  01:45        1.49
  YS02001629           JUNCTION     1.59     1.85     8.40     0  01:45        1.84
  YS02001641           JUNCTION     1.68     1.94     8.37     0  01:56        1.93
  YS02001644           JUNCTION     1.68     1.92     8.35     0  01:46        1.92
  YS02001652           JUNCTION     1.54     2.07     8.67     0  01:57        1.87
  YS02001655           JUNCTION     1.31     2.05     8.90     0  01:57        1.66
  YS02001920           JUNCTION     0.58     1.55     8.56     0  01:53        1.40
  YS02001923           JUNCTION     0.40     1.34     8.60     0  01:53        1.18
  YS02001926           JUNCTION     0.41     1.15     8.60     0  01:53        1.06
  YS02001929           JUNCTION     0.26     0.88     8.58     0  01:53        0.76
  YS02001658           JUNCTION     1.05     2.02     9.16     0  01:57        1.42
  YS02001661           JUNCTION     0.83     2.16     9.57     0  02:00        1.37
  YS02001664           JUNCTION     0.37     0.57     8.49     0  01:50        0.55
  YS02001622           JUNCTION     1.27     1.58     8.48     0  01:45        1.50
  YS02001633           JUNCTION     1.68     1.95     8.40     0  02:00        1.94
  YS02001649           JUNCTION     1.73     2.05     8.44     0  01:50        2.05
  YS02001757           JUNCTION     1.85     2.19     8.45     0  02:53        2.19
  YS02001895           JUNCTION     0.72     1.57     8.31     0  02:15        1.56
  YS02001625           JUNCTION     1.54     1.78     8.38     0  01:43        1.78
  YS02163301           JUNCTION     1.62     1.89     8.40     0  01:45        1.88
  YS02163601           JUNCTION     1.73     1.99     8.39     0  02:05        1.98
  YS02164001           JUNCTION     1.66     1.92     8.38     0  01:46        1.91
  YS02001647           JUNCTION     1.52     1.81     8.42     0  01:55        1.79
  YSB1154              JUNCTION     0.31     0.59     9.65     0  01:56        0.59
  YSB6556              JUNCTION     0.20     0.48     9.65     0  01:56        0.48
  YSB1174              JUNCTION     0.26     0.54     9.65     0  01:56        0.54
  YSB1171              JUNCTION     0.46     0.75     9.65     0  01:56        0.75
  YS02006553           JUNCTION     1.14     1.98     8.27     0  02:25        1.96
  YS02006561           JUNCTION     0.44     1.07     7.73     0  02:41        1.07
  YS02006556           JUNCTION     1.11     1.97     8.28     0  02:25        1.93
  YS02006558           JUNCTION     1.15     2.02     8.29     0  02:25        1.97
  YS02001783           JUNCTION     0.66     1.45     7.60     0  02:41        1.45
  YS02001784           JUNCTION     0.65     1.39     7.46     0  02:41        1.39
  YS02001786           JUNCTION     0.55     1.23     7.26     0  02:42        1.23
  YS02001788           JUNCTION     0.44     1.10     7.07     0  02:43        1.10
  YS02001790           JUNCTION     0.52     1.25     6.90     0  02:43        1.25
  YS02001791           JUNCTION     0.41     1.23     6.70     0  02:44        1.23
  YS02001793           JUNCTION     0.47     1.75     6.58     0  02:44        1.75
  WSC                  OUTFALL      0.15     0.28     0.95     0  02:06        0.28
  3                    OUTFALL      0.00     0.00     7.16     0  00:00        0.00
  4                    OUTFALL      0.00     0.00     7.67     0  00:00        0.00
  5                    OUTFALL      0.00     0.00     4.91     0  00:00        0.00
  JK-storage           STORAGE      1.62     5.76     6.56     0  02:44        5.76
  CC-storage           STORAGE      1.05     1.43     8.43     0  02:59        1.43
  XR-storage           STORAGE      6.35     7.72     5.72     0  02:12        7.72
  
  
  *******************
  Node Inflow Summary
  *******************
  
  -------------------------------------------------------------------------------------------------
                                  Maximum  Maximum                  Lateral       Total        Flow
                                  Lateral    Total  Time of Max      Inflow      Inflow     Balance
                                   Inflow   Inflow   Occurrence      Volume      Volume       Error
  Node                 Type           LPS      LPS  days hr:min    10^6 ltr    10^6 ltr     Percent
  -------------------------------------------------------------------------------------------------
  WS02001211           JUNCTION      7.35    96.28     0  02:03       0.212       0.546       1.806
  WS02001212           JUNCTION      0.00    90.17     0  02:02           0       0.426       0.552
  WS02001213           JUNCTION      0.00    92.18     0  02:01           0       0.429       2.257
  WS02003069           JUNCTION      0.32   505.12     0  02:05     0.00922        4.16       0.167
  WS02003072           JUNCTION      0.00   504.70     0  02:05           0        4.15       0.259
  WS02003073           JUNCTION      1.82   506.41     0  02:06      0.0524        4.19       0.231
  WS02003060           JUNCTION     16.53   598.15     0  02:01       0.476         4.5       0.146
  WS02003066           JUNCTION      0.00   580.44     0  02:01           0        3.93       0.051
  WS02003059           JUNCTION      0.00   109.68     0  01:40           0       0.447       4.374
  WS02003067           JUNCTION      0.00   579.91     0  02:01           0        3.94       0.129
  WS02004401           JUNCTION      0.00   595.48     0  01:58           0        4.06       0.302
  WS02004402           JUNCTION      0.00   595.72     0  01:57           0        4.05       0.302
  WS02004403           JUNCTION      0.00   595.49     0  01:59           0        4.04       0.290
  WS02004404           JUNCTION      0.16   598.65     0  01:57     0.00467        4.03       0.207
  WS02004406           JUNCTION      0.00   599.45     0  01:58           0        4.01       0.574
  WS02004409           JUNCTION      0.00   590.99     0  01:59           0        3.98       0.126
  WS02004410           JUNCTION      0.00   587.54     0  01:59           0        3.98       0.172
  WS02004411           JUNCTION      0.00   584.86     0  02:00           0        3.97       0.200
  WS02004412           JUNCTION      0.00   582.02     0  02:00           0        3.96       0.248
  WS02004413           JUNCTION      0.00   581.10     0  02:00           0        3.95       0.426
  WS02004405           JUNCTION      0.04   605.41     0  01:55      0.0011        4.02       0.353
  WS02006109           JUNCTION      1.23   544.25     0  01:59      0.0354        3.99       0.312
  WS02006110           JUNCTION      0.00   544.12     0  01:58           0        3.98       0.287
  WS02006111           JUNCTION      0.00   566.73     0  01:58           0        3.97       0.032
  WS02006112           JUNCTION     31.85   580.12     0  01:58       0.133         4.1       0.408
  WS02006113           JUNCTION      0.00   544.71     0  01:58           0        3.97       0.079
  WS02006115           JUNCTION      0.00   587.73     0  01:57           0        4.08       0.270
  WS02006116           JUNCTION      0.00   592.00     0  01:58           0        4.07       0.177
  WS02006230           JUNCTION     10.28   240.50     0  01:57       0.296        1.53       0.413
  WS02006231           JUNCTION      0.00   240.24     0  01:57           0        1.29       0.187
  WS02006232           JUNCTION      0.00   240.01     0  01:58           0        1.29       0.453
  WS02006234           JUNCTION      0.00   240.04     0  01:58           0        1.28       0.106
  WS02006235           JUNCTION      0.00   607.25     0  01:59           0        8.95       0.036
  WS02006238           JUNCTION      0.00   103.44     0  02:01           0        1.74       0.159
  WS02006240           JUNCTION      0.00   103.23     0  02:00           0        1.73       0.240
  WS02006242           JUNCTION      0.00   103.30     0  01:59           0        1.74       0.320
  WS02006243           JUNCTION      0.00   103.36     0  01:59           0        1.74       0.132
  WS02006245           JUNCTION      0.00   103.40     0  01:58           0        1.74       0.235
  WS02006247           JUNCTION      0.00   103.42     0  01:58           0        1.75       0.208
  WS02006248           JUNCTION      0.00   103.44     0  01:57           0        1.75       0.081
  WS02006249           JUNCTION      0.00   103.50     0  01:56           0        1.75       0.309
  WS02006239           JUNCTION      0.00   103.30     0  02:01           0        1.73       0.204
  WS02006251           JUNCTION      0.08   564.64     0  01:56     0.00222        10.1       0.029
  WS02006252           JUNCTION      0.00   400.00     0  01:31           0        9.36       0.006
  WS02006253           JUNCTION      3.90   164.16     0  01:56      0.0151       0.726       0.427
  WS02006256           JUNCTION      0.00   983.00     0  00:00           0        16.2      -0.008
  WS02004138           JUNCTION      0.00   380.00     0  00:00           0        10.9       0.058
  WS02004139           JUNCTION      0.32   476.15     0  02:04     0.00924        11.4       0.077
  WS02004407           JUNCTION      0.00   592.59     0  01:59           0        3.99       0.059
  WS02006228           JUNCTION      0.00   543.16     0  01:59           0        3.96       0.206
  WS02006229           JUNCTION      0.00   772.39     0  01:57           0        4.55       0.212
  WS02006280           JUNCTION      0.00   772.38     0  01:57           0        3.66       0.002
  WS02006284           JUNCTION      0.10   772.25     0  01:57     0.00275        3.66       0.019
  WS02006287           JUNCTION      0.00   772.12     0  01:57           0        3.65       0.020
  WSF200               JUNCTION      0.00   580.72     0  02:01           0        3.93       0.027
  HS02004901           JUNCTION     38.89    38.89     0  01:54       0.162       0.162       1.098
  HS02004881           JUNCTION     15.22   160.59     0  01:56      0.0619       0.711       0.009
  HS02004876           JUNCTION     27.82   145.93     0  01:56        0.12        0.65       0.082
  HS02004870           JUNCTION     28.21   118.40     0  01:56       0.117        0.53       0.021
  HS02004862           JUNCTION     27.61    91.03     0  01:57       0.138       0.413       0.042
  HS02004856           JUNCTION     21.14    63.47     0  01:56      0.0882       0.276       0.525
  HS02004852           JUNCTION      0.00    42.92     0  01:57           0       0.188       0.029
  HS02004848           JUNCTION     61.11    61.11     0  01:59       0.312       0.312       0.016
  HS02004842           JUNCTION      0.00    19.71     0  02:09           0       0.137      10.523
  HS02004837           JUNCTION     54.03    71.06     0  01:57       0.386        0.51       0.161
  HS02004830           JUNCTION      0.15    71.18     0  01:57     0.00432         0.5       0.247
  HS02004824           JUNCTION     71.90   143.05     0  01:59       0.372       0.871       0.063
  HS02004817           JUNCTION      0.60   145.32     0  01:59      0.0173       0.888       1.914
  HS02004807           JUNCTION     51.98   194.57     0  01:57       0.214        1.09       0.402
  HS02004802           JUNCTION      0.00   193.66     0  01:59           0        1.09       0.361
  HS02004799           JUNCTION     41.67   494.09     0  01:56       0.174        2.23       0.135
  HS02004792           JUNCTION    192.82   453.08     0  01:56       0.877        2.05       0.020
  HS02004788           JUNCTION     62.37   261.00     0  01:56       0.316        1.18       0.034
  HS02004785           JUNCTION      0.15   198.86     0  01:56     0.00432       0.861       0.058
  HS02004777           JUNCTION      0.03   198.92     0  01:55    0.000864       0.861       0.608
  HS02004770           JUNCTION    160.90   199.38     0  01:55       0.702       0.863       0.358
  HS02004480           JUNCTION      0.00   580.41     0  01:56           0        2.59       0.036
  HS02004479           JUNCTION      0.00    86.45     0  01:56           0       0.375       0.197
  HS02004478           JUNCTION      0.00   772.10     0  01:57           0        3.66       0.008
  YS02001745           JUNCTION    527.41   527.41     0  02:34         4.7         4.7       0.157
  YS02001748           JUNCTION      0.04   527.26     0  02:33      0.0013        4.69       0.424
  YS02001751           JUNCTION      0.01   527.25     0  02:33    0.000317        4.67       0.500
  YS02001754           JUNCTION      0.26   527.49     0  02:33     0.00749        4.66       0.517
  YS02001762           JUNCTION      0.00   407.34     0  01:53           0        2.55       0.814
  YS02001765           JUNCTION      0.00   407.61     0  01:53           0        2.55       0.948
  YS02001767           JUNCTION      0.54   407.59     0  01:53      0.0154        2.57       1.390
  YS02001770           JUNCTION    635.59   822.25     0  02:46        5.15        5.89       0.514
  YS02001774           JUNCTION      0.00   822.25     0  02:46           0        4.05       0.613
  YS02001779           JUNCTION      0.01   822.26     0  02:46    0.000144        4.02       0.365
  YS02001882           JUNCTION      0.00    22.06     0  01:48           0      0.0231       8.850
  YS02001884           JUNCTION      0.00    42.40     0  01:47           0      0.0598      10.221
  YS02001759           JUNCTION    614.25   892.56     0  01:59        4.79        6.56       0.338
  YS02001887           JUNCTION    755.42   756.50     0  02:16        5.37         5.4       0.144
  YS02001890           JUNCTION      0.00   756.43     0  02:15           0        5.36       0.163
  YS02001898           JUNCTION      0.00   567.17     0  01:52           0        4.62       0.043
  YS02001901           JUNCTION      0.00   567.56     0  01:52           0        4.62       0.146
  YS02001904           JUNCTION      0.00   567.35     0  01:52           0        4.62       0.114
  YS02001907           JUNCTION      0.00  1223.21     0  02:37           0        11.4       0.195
  YS02001910           JUNCTION      0.00   706.80     0  02:37           0        6.81       0.162
  YS02001915           JUNCTION    456.40   706.77     0  02:37        3.88        6.86       0.084
  YS02001918           JUNCTION      0.00   357.33     0  01:54           0           3       0.039
  YS02001619           JUNCTION    455.07   455.07     0  02:32        3.94        3.94       0.301
  YS02001629           JUNCTION      0.00   204.61     0  01:46           0        1.73       1.628
  YS02001641           JUNCTION      0.00   426.49     0  01:46           0        5.48       0.379
  YS02001644           JUNCTION    505.27  1740.34     0  02:44        4.54        14.3       0.175
  YS02001652           JUNCTION      0.00   572.46     0  02:11           0        4.11       0.550
  YS02001655           JUNCTION      0.15   571.72     0  02:11     0.00443        4.13       0.598
  YS02001920           JUNCTION      2.87   356.79     0  01:54      0.0827        2.98       0.092
  YS02001923           JUNCTION      0.04   306.83     0  01:54     0.00109        2.88       0.047
  YS02001926           JUNCTION      0.05   261.75     0  03:00      0.0015        2.87       0.107
  YS02001929           JUNCTION    261.48   261.48     0  03:01        2.86        2.86       0.026
  YS02001658           JUNCTION      0.00   573.57     0  02:02           0        4.15       0.521
  YS02001661           JUNCTION      0.00   810.09     0  02:02           0        4.37      -0.223
  YS02001664           JUNCTION    558.20   558.20     0  02:19        4.14        4.37       0.051
  YS02001622           JUNCTION      0.00   455.07     0  02:32           0        3.93       0.801
  YS02001633           JUNCTION    514.92   514.92     0  02:36        4.68        5.96       0.533
  YS02001649           JUNCTION      0.00   919.27     0  01:57           0        7.85       0.462
  YS02001757           JUNCTION      0.00  2173.54     0  02:00           0        13.9       0.652
  YS02001895           JUNCTION      0.00   566.61     0  01:52           0        4.63       0.110
  YS02001625           JUNCTION      0.00   574.89     0  02:34           0        4.31       0.902
  YS02163301           JUNCTION      0.00   216.27     0  01:43           0        1.73       1.379
  YS02163601           JUNCTION      0.11   423.96     0  01:46     0.00317        5.49       0.539
  YS02164001           JUNCTION      0.00   424.54     0  01:46           0        5.48       0.349
  YS02001647           JUNCTION      0.00   846.70     0  03:01           0        6.44       0.430
  YSB1154              JUNCTION     48.63    48.63     0  01:54        0.21        0.21       0.690
  YSB6556              JUNCTION      0.00    48.39     0  01:55           0       0.211       0.598
  YSB1174              JUNCTION     39.99    39.99     0  01:52       0.157       0.157       0.822
  YSB1171              JUNCTION      0.00    86.80     0  01:55           0       0.374       1.724
  YS02006553           JUNCTION      0.00   722.27     0  03:48           0        7.77       0.183
  YS02006561           JUNCTION      0.00  1152.43     0  02:23           0        12.7       0.007
  YS02006556           JUNCTION      0.00   722.86     0  03:48           0        7.77       0.119
  YS02006558           JUNCTION    664.19  1152.79     0  02:20           5        12.7       0.031
  YS02001783           JUNCTION      0.00  1152.36     0  02:23           0        12.7       0.016
  YS02001784           JUNCTION      1.06  1153.39     0  02:23      0.0305        12.7       0.027
  YS02001786           JUNCTION      0.06  1153.47     0  02:23     0.00162        12.7       0.027
  YS02001788           JUNCTION      0.07  1153.67     0  02:23     0.00204        12.7       0.016
  YS02001790           JUNCTION      0.15  1167.57     0  02:22     0.00446        12.7       0.019
  YS02001791           JUNCTION      0.00  1282.88     0  02:16           0        12.7       0.001
  YS02001793           JUNCTION      0.00  1242.06     0  02:14           0        12.7      -0.001
  WSC                  OUTFALL       0.00   506.29     0  02:06           0        4.18       0.000
  3                    OUTFALL       0.00   607.25     0  01:59           0        8.28       0.000
  4                    OUTFALL       0.00   460.77     0  01:57           0        8.33       0.000
  5                    OUTFALL       0.00   475.99     0  02:04           0        11.4       0.000
  JK-storage           STORAGE       0.00  1237.60     0  01:54           0        12.9     -20.486
  CC-storage           STORAGE       0.00  2174.27     0  01:59           0        12.2       0.137
  XR-storage           STORAGE    1281.91  1281.91     0  03:01        17.8        18.4      -1.469
  
  
  **********************
  Node Surcharge Summary
  **********************
  
  Surcharging occurs when water rises above the top of the highest conduit.
  ---------------------------------------------------------------------
                                               Max. Height   Min. Depth
                                   Hours       Above Crown    Below Rim
  Node                 Type      Surcharged         Meters       Meters
  ---------------------------------------------------------------------
  WS02004404           JUNCTION        0.03          0.113        2.667
  WS02006109           JUNCTION        0.86          0.162        1.658
  WS02006110           JUNCTION        0.21          0.018        1.832
  WS02006112           JUNCTION        0.49          0.147        1.533
  WS02006252           JUNCTION        6.49          0.193        0.907
  WS02006256           JUNCTION        6.66          2.050        0.000
  WS02006228           JUNCTION        0.84          0.197        2.003
  HS02004817           JUNCTION        0.26          0.024        1.716
  YS02001748           JUNCTION        5.70          0.359        0.831
  YS02001751           JUNCTION        6.27          0.597        0.603
  YS02001754           JUNCTION        6.32          0.804        0.346
  YS02001762           JUNCTION        6.39          1.050        0.100
  YS02001765           JUNCTION        6.38          0.998        0.102
  YS02001767           JUNCTION        6.37          0.956        0.074
  YS02001770           JUNCTION        6.37          0.915        0.005
  YS02001774           JUNCTION        6.38          0.991        0.059
  YS02001779           JUNCTION        6.32          0.680        0.000
  YS02001882           JUNCTION        2.02          0.640        0.190
  YS02001884           JUNCTION        2.03          0.683        0.187
  YS02001759           JUNCTION        6.40          1.089        0.121
  YS02001887           JUNCTION        2.09          0.770        0.180
  YS02001890           JUNCTION        2.11          0.760        0.000
  YS02001898           JUNCTION        1.98          0.534        0.206
  YS02001901           JUNCTION        2.06          0.678        0.192
  YS02001904           JUNCTION        2.05          0.640        0.210
  YS02001907           JUNCTION        2.66          0.950        0.000
  YS02001910           JUNCTION        2.15          0.831        0.269
  YS02001915           JUNCTION        2.00          0.685        0.315
  YS02001918           JUNCTION        1.85          0.446        0.364
  YS02001619           JUNCTION        6.28          0.590        0.020
  YS02001629           JUNCTION        6.28          0.470        0.000
  YS02001641           JUNCTION        6.38          0.936        0.164
  YS02001644           JUNCTION        6.38          0.920        0.000
  YS02001652           JUNCTION        6.33          1.042        0.088
  YS02001655           JUNCTION        6.28          1.054        0.146
  YS02001920           JUNCTION        1.88          0.554        0.586
  YS02001923           JUNCTION        0.01          0.132        0.688
  YS02001926           JUNCTION        0.01          0.151        0.749
  YS02001658           JUNCTION        5.78          1.019        0.281
  YS02001661           JUNCTION        0.64          1.093        0.297
  YS02001622           JUNCTION        6.28          0.580        0.040
  YS02001633           JUNCTION        6.37          0.927        0.133
  YS02001649           JUNCTION        6.39          1.050        0.000
  YS02001757           JUNCTION        6.42          1.187        0.023
  YS02001895           JUNCTION        1.99          0.567        0.183
  YS02001625           JUNCTION        6.35          0.780        0.000
  YS02163301           JUNCTION        6.36          0.885        0.145
  YS02163601           JUNCTION        6.39          0.990        0.090
  YS02164001           JUNCTION        6.37          0.921        0.179
  YS02001647           JUNCTION        6.34          0.809        0.091
  YS02006553           JUNCTION        2.72          0.983        0.207
  YS02006561           JUNCTION        1.87          0.270        0.880
  YS02006556           JUNCTION        2.33          0.932        0.418
  YS02006558           JUNCTION        2.30          0.921        0.479
  YS02001783           JUNCTION        2.11          0.655        0.945
  YS02001784           JUNCTION        2.08          0.594        0.896
  YS02001786           JUNCTION        1.97          0.433        0.997
  YS02001788           JUNCTION        1.35          0.296        1.184
  YS02001790           JUNCTION        1.45          0.454        0.703
  YS02001791           JUNCTION        1.44          0.429        1.491
  YS02001793           JUNCTION        1.56          0.753        1.847
  
  
  *********************
  Node Flooding Summary
  *********************
  
  Flooding refers to all water that overflows a node, whether it ponds or not.
  --------------------------------------------------------------------------
                                                             Total   Maximum
                                 Maximum   Time of Max       Flood    Ponded
                        Hours       Rate    Occurrence      Volume     Depth
  Node                 Flooded       LPS   days hr:min    10^6 ltr    Meters
  --------------------------------------------------------------------------
  WS02006256              5.84    978.40      0  00:00       9.610     0.000
  YS02001779              3.35    822.26      0  02:46       3.999     0.000
  YS02001890              1.22    239.97      0  02:15       0.717     0.000
  YS02001907              1.71    875.48      0  02:34       3.653     0.000
  YS02001629              0.01     12.42      0  01:45       0.000     0.000
  YS02001644              4.34   1740.34      0  02:44      12.035     0.000
  YS02001649              0.29     36.43      0  02:52       0.024     0.000
  YS02001625              2.41    574.89      0  02:34       2.965     0.000
  XR-storage              5.15    901.90      0  03:01       6.833     0.000
  
  
  **********************
  Storage Volume Summary
  **********************
  
  --------------------------------------------------------------------------------------------------
                         Average     Avg  Evap Exfil       Maximum     Max    Time of Max    Maximum
                          Volume    Pcnt  Pcnt  Pcnt        Volume    Pcnt     Occurrence    Outflow
  Storage Unit           1000 m3    Full  Loss  Loss       1000 m3    Full    days hr:min        LPS
  --------------------------------------------------------------------------------------------------
  JK-storage               0.081      28     0     0         0.289      99       0  02:44     983.00
  CC-storage               2.917      19     0     0         3.972      25       0  02:59     400.00
  XR-storage               0.762      82     0     0         0.926     100       0  02:12     380.00
  
  
  ***********************
  Outfall Loading Summary
  ***********************
  
  ---------------------------------------------------------------------------------------------------------------------------------
                         Flow       Avg       Max       Total         Total         Total         Total         Total         Total
                         Freq      Flow      Flow      Volume           COD            SS            TN            TP         NH4-N
  Outfall Node           Pcnt       LPS       LPS    10^6 ltr            kg            kg            kg            kg            kg
  ---------------------------------------------------------------------------------------------------------------------------------
  WSC                   99.97    175.50    506.29       4.182       577.404      1073.388        25.642         2.803        14.899
  3                     99.98    332.39    607.25       8.280       566.037      1111.719        11.215         0.816         5.480
  4                     99.97    327.13    460.77       8.329       851.055      1641.552        16.685         1.155         8.068
  5                     99.99    399.60    475.99      11.361      1381.337      2384.837        96.050        11.445        58.405
  ---------------------------------------------------------------------------------------------------------------------------------
  System                99.98   1234.62   2026.39      32.152      3375.833      6211.496       149.592        16.219        86.851
  
  
  ********************
  Link Flow Summary
  ********************
  
  -----------------------------------------------------------------------------
                                 Maximum  Time of Max   Maximum    Max/    Max/
                                  |Flow|   Occurrence   |Veloc|    Full    Full
  Link                 Type          LPS  days hr:min     m/sec    Flow   Depth
  -----------------------------------------------------------------------------
  WS02003066WSF200     CONDUIT    580.72     0  02:01      2.95    0.10    0.23
  WS02006287WS02006284 CONDUIT    772.16     0  01:57      2.48    0.36    0.42
  WS02006284WS02006280 CONDUIT    772.38     0  01:57      2.71    0.32    0.39
  WS02006280WS02006229 CONDUIT    772.39     0  01:57      4.41    0.16    0.27
  WS02006229WS02006228 CONDUIT    543.16     0  01:59      1.08    1.80    1.00
  WS02006256WS02006235 CONDUIT    289.81     0  02:49      4.46    3.07    1.00
  WS02006253WS02006251 CONDUIT    164.20     0  01:56      0.97    0.49    0.45
  WS02006252WS02006251 CONDUIT    400.92     0  06:08      3.19    1.47    1.00
  WS02006251WS02006249 CONDUIT    103.50     0  01:56      0.78    0.30    0.39
  WS02006249WS02006248 CONDUIT    103.44     0  01:57      0.84    0.57    0.36
  WS02006248WS02006247 CONDUIT    103.42     0  01:58      0.84    0.23    0.37
  WS02006247WS02006245 CONDUIT    103.40     0  01:58      0.80    0.82    0.38
  WS02006245WS02006243 CONDUIT    103.36     0  01:59      0.90    0.31    0.34
  WS02006243WS02006242 CONDUIT    103.30     0  01:59      0.80    0.22    0.39
  WS02006242WS02006240 CONDUIT    103.23     0  02:00      0.64    0.41    0.44
  WS02006240WS02006239 CONDUIT    103.30     0  02:01      0.79    0.33    0.39
  WS02006239WS02006238 CONDUIT    103.44     0  02:01      0.69    0.33    0.46
  WS02006238WS02006235 CONDUIT    103.73     0  02:02      1.17    0.23    0.48
  WS02006235WS02006234 CONDUIT    239.95     0  01:58      1.23    2.53    0.51
  WS02006234WS02006232 CONDUIT    240.04     0  01:58      0.82    0.49    0.72
  WS02006232WS02006231 CONDUIT    240.01     0  01:58      0.73    0.50    0.80
  WS02006231WS02006230 CONDUIT    240.24     0  01:57      0.75    3.64    0.78
  WS02006230WS02006229 CONDUIT    230.22     0  01:57      0.60    5.12    1.00
  WS02006228WS02006109 CONDUIT    543.02     0  01:59      1.08    2.37    1.00
  WS02006116WS02004401 CONDUIT    595.48     0  01:58      0.81    0.82    0.89
  WS02006115WS02006116 CONDUIT    592.00     0  01:58      1.02    0.76    0.82
  WS02006113WS02006111 CONDUIT    566.73     0  01:58      2.47    0.68    0.47
  WS02006112WS02006115 CONDUIT    587.73     0  01:57      0.79    0.35    0.90
  WS02006111WS02006112 CONDUIT    549.59     0  01:58      1.52    0.26    0.67
  WS02006110WS02006113 CONDUIT    544.71     0  01:58      1.29    0.50    0.79
  WS02006109WS02006110 CONDUIT    544.12     0  01:58      1.08    1.05    1.00
  WS02004411WS02004412 CONDUIT    582.02     0  02:00      1.08    0.83    0.72
  WS02004401WS02004402 CONDUIT    595.72     0  01:57      0.80    0.72    0.91
  WS02004413WS02003067 CONDUIT    579.91     0  02:01      1.16    0.25    0.61
  WS02004412WS02004413 CONDUIT    581.10     0  02:00      0.99    0.39    0.80
  WS02004410WS02004411 CONDUIT    584.86     0  02:00      0.98    0.80    0.71
  WS02004409WS02004410 CONDUIT    587.54     0  01:59      1.00    0.76    0.70
  WS02004407WS02004409 CONDUIT    590.99     0  01:59      1.50    0.21    0.50
  WS02004406WS02004407 CONDUIT    592.59     0  01:59      1.10    0.26    0.65
  WS02004405WS02004406 CONDUIT    599.45     0  01:58      0.77    1.18    0.99
  WS02004404WS02004405 CONDUIT    605.37     0  01:55      0.78    5.93    1.00
  WS02004403WS02004404 CONDUIT    598.49     0  01:57      0.77    0.43    0.97
  WS02004402WS02004403 CONDUIT    595.49     0  01:59      0.79    0.86    0.93
  WS02004139WS02001211 CONDUIT     95.83     0  02:04      0.49    0.12    0.23
  WS02004138WS02004139 CONDUIT    396.29     0  00:00      3.67    0.08    0.21
  WS02003067WS02003066 CONDUIT    580.44     0  02:01      1.26    0.19    0.43
  WS02001213WS02003059 CONDUIT     92.18     0  02:01      0.25    0.15    0.56
  WS02001212WS02001213 CONDUIT     90.17     0  02:02      0.84    0.14    0.19
  WS02001211WS02001212 CONDUIT     88.94     0  02:03      0.50    0.07    0.28
  WS02003072WS02003073 CONDUIT    504.59     0  02:06      1.39    1.09    0.36
  WS02003069WS02003072 CONDUIT    504.70     0  02:05      1.33    0.24    0.37
  WS02003060WS02003069 CONDUIT    504.80     0  02:05      1.61    0.20    0.32
  WS02003059WS02003060 CONDUIT    109.68     0  01:40      0.56    0.07    0.49
  HS02004901HS02004770 CONDUIT     38.51     0  01:55      0.10    0.14    0.55
  HS02004876HS02004881 CONDUIT    145.95     0  01:57      1.29    1.55    0.16
  HS02004870HS02004876 CONDUIT    118.38     0  01:57      0.87    0.08    0.19
  HS02004842HS02004848 CONDUIT     19.71     0  02:09      0.08    0.01    0.34
  HS02004837HS02004842 CONDUIT     20.14     0  02:10      0.42    0.01    0.36
  HS02004830HS02004837 CONDUIT     71.03     0  01:57      0.68    0.07    0.15
  HS02004824HS02004830 CONDUIT     71.30     0  01:58      0.62    0.09    0.20
  HS02004817HS02004824 CONDUIT    144.72     0  01:59      0.34    0.07    0.61
  HS02004770HS02004777 CONDUIT    198.89     0  01:55      0.51    0.36    0.56
  HS02004799HS02004480 CONDUIT    494.04     0  01:56      1.11    0.62    0.63
  HS02004792HS02004799 CONDUIT    452.98     0  01:56      1.25    0.28    0.52
  HS02004788HS02004792 CONDUIT    260.94     0  01:56      1.31    0.17    0.29
  HS02004785HS02004788 CONDUIT    198.83     0  01:56      0.93    1.50    0.30
  HS02004777HS02004785 CONDUIT    198.71     0  01:56      0.60    0.24    0.47
  HS02004480HS02004478 CONDUIT    580.44     0  01:56      1.61    2.44    0.51
  HS02004479HS02004480 CONDUIT     86.38     0  01:56      0.38    0.08    0.61
  HS02004862HS02004870 CONDUIT     91.03     0  01:57      0.84    0.10    0.15
  HS02004848HS02004852 CONDUIT     42.92     0  01:57      0.55    0.05    0.11
  HS02004856HS02004862 CONDUIT     63.43     0  01:57      0.62    0.06    0.15
  HS02004852HS02004856 CONDUIT     42.98     0  01:58      0.36    0.05    0.17
  HS02004802HS02004478 CONDUIT    194.28     0  02:00      0.54    0.17    0.52
  HS02004478WS02006287 CONDUIT    772.12     0  01:57      2.21    0.22    0.39
  HS02004817HS02004807 CONDUIT    145.66     0  02:00      0.27    0.09    0.78
  HS02004807HS02004802 CONDUIT    193.66     0  01:59      0.48    0.37    0.57
  YS02001759YS02001757 CONDUIT    892.56     0  01:59      1.14    0.63    1.00
  YS02001762YS02001759 CONDUIT    407.55     0  01:53      0.52    0.47    1.00
  YS02001765YS02001762 CONDUIT    407.34     0  01:53      0.52    0.38    1.00
  YS02001770YS02001767 CONDUIT    407.05     0  01:53      0.52    1.61    1.00
  YS02001774YS02001770 CONDUIT    822.25     0  02:46      1.05    0.53    1.00
  YS02001779YS02001774 CONDUIT    822.25     0  02:46      1.05    0.41    1.00
  YS02001649YS02001757 CONDUIT    912.36     0  01:56      1.16    0.55    1.00
  YS02001767YS02001765 CONDUIT    407.61     0  01:53      0.52    0.51    1.00
  YS02006561YS02001783 CONDUIT   1152.36     0  02:23      2.29    0.60    1.00
  YS02001783YS02001784 CONDUIT   1152.33     0  02:23      2.29    1.59    1.00
  YS02001784YS02001785 CONDUIT   1153.41     0  02:23      2.29    2.68    1.00
  YS02001788YS02001790 CONDUIT   1167.41     0  02:22      2.72    0.86    1.00
  YS02001790YS02001791 CONDUIT   1282.88     0  02:16      3.44    1.40    1.00
  YS02001791YS02001793 CONDUIT   1242.06     0  02:14      6.79    0.53    1.00
  YS02001910YS02001907 CONDUIT    706.82     0  02:37      0.90    0.40    1.00
  YS02001786YS02001788 CONDUIT   1153.60     0  02:23      2.47    2.22    1.00
  YS02001915YS02001910 CONDUIT    706.80     0  02:37      0.90    0.35    1.00
  YS02001918YS02001915 CONDUIT    357.72     0  01:54      0.51    0.20    1.00
  YS02001923YS02001920 CONDUIT    353.92     0  01:54      0.86    0.16    1.00
  YS02001926YS02001923 CONDUIT    306.79     0  01:54      0.96    0.44    1.00
  YS02001929YS02001926 CONDUIT    261.70     0  03:00      1.02    0.12    0.94
  YS02001920YS02001918 CONDUIT    357.33     0  01:54      0.81    0.35    1.00
  YS02001629YS02163301 CONDUIT    216.27     0  01:43      0.28    0.27    1.00
  YS02001619YS02001622 CONDUIT    455.07     0  02:32      0.73    0.67    1.00
  YS02001622YS02001625 CONDUIT    455.07     0  02:32      0.58    0.24    1.00
  YS02001625YS02001629 CONDUIT    204.61     0  01:46      0.29    0.10    1.00
  YS02163301YS02001633 CONDUIT    217.94     0  01:43      0.28    0.20    1.00
  YS02163601YS02164001 CONDUIT    424.54     0  01:46      0.54    0.38    1.00
  YS02164001YS02001641 CONDUIT    426.49     0  01:46      0.54    0.58    1.00
  YS02001641YS02001644 CONDUIT    427.56     0  01:46      0.54    1.38    1.00
  YS02001647YS02001649 CONDUIT    846.70     0  03:01      1.08    0.45    1.00
  YS02006553YS02006556 CONDUIT    722.86     0  03:48      0.92    0.62    1.00
  YS02006556YS02006558 CONDUIT    723.26     0  03:48      0.92    0.57    1.00
  YSB6556YSB1171       CONDUIT     48.31     0  01:56      0.14    0.05    0.84
  YS02001907YS02006553 CONDUIT    722.27     0  03:48      0.80    0.85    1.00
  YS02006558YS02006561 CONDUIT   1152.43     0  02:23      4.08    2.55    1.00
  YS02001633YS02163601 CONDUIT    423.85     0  01:46      0.54    0.44    1.00
  YS02001644YS02001647 CONDUIT    846.70     0  03:01      1.08    0.50    1.00
  YS02001745YS02001748 CONDUIT    527.21     0  02:33      1.66    0.20    0.99
  YS02001748YS02001751 CONDUIT    527.24     0  02:33      1.22    0.27    1.00
  YS02001751YS02001754 CONDUIT    527.23     0  02:33      1.03    0.25    1.00
  YS02001754YS02001757 CONDUIT    527.48     0  02:33      0.67    0.21    1.00
  YS02001882YS02001884 CONDUIT     22.06     0  01:48      0.17    0.03    1.00
  YS02001884YS02001887 CONDUIT     42.40     0  01:47      0.12    0.06    1.00
  YS02001890YS02001895 CONDUIT    566.61     0  01:52      0.72    0.26    1.00
  YS02001895YS02001898 CONDUIT    567.17     0  01:52      0.72    0.98    1.00
  YS02001898YS02001901 CONDUIT    567.56     0  01:52      0.72    0.37    1.00
  YS02001901YS02001904 CONDUIT    567.35     0  01:52      0.72    0.88    1.00
  YS02001904YS02001907 CONDUIT    566.64     0  01:52      0.72    0.20    1.00
  YS02001887YS02001890 CONDUIT    756.43     0  02:15      0.96    1.29    1.00
  YS02001652YS02001649 CONDUIT    572.98     0  02:09      0.73    0.28    1.00
  YS02001655YS02001652 CONDUIT    572.46     0  02:11      1.10    0.28    1.00
  YS02001658YS02001655 CONDUIT    571.56     0  02:11      1.41    0.24    1.00
  YS02001661YS02001658 CONDUIT    573.57     0  02:02      1.77    0.23    1.00
  YS02001664YS02001661 CONDUIT    810.09     0  02:02      1.69    0.25    0.78
  YSB1154YSB6556       CONDUIT     48.39     0  01:55      0.15    0.09    0.77
  YSB1174YSB1171       CONDUIT     39.28     0  01:53      0.11    0.06    0.88
  YSB1171HS02004479    CONDUIT     86.45     0  01:56      0.54    0.06    0.71
  HS02004881HS02006253 CONDUIT    160.59     0  01:56      2.86    0.03    0.08
  YS02001793JiankangQianchi CONDUIT   1237.60     0  01:54     20.79    0.10    1.00
  YS02001757CaochengTiaoxuchi CONDUIT   2174.27     0  01:59      3.74    0.95    1.00
  WSF200WS02003060     CONDUIT    581.62     0  02:01      2.29    0.13    0.28
  1                    CONDUIT    506.29     0  02:06      2.75    0.18    0.28
  CC-Pump-1            PUMP       200.00     0  01:31              1.00
  CC-Pump-2            PUMP       200.00     0  01:31              1.00
  JK-Pump-1            PUMP       300.00     0  00:00              1.00
  JK-Pump-2            PUMP       683.00     0  00:00              1.00
  XR-Pump-1            PUMP        95.00     0  00:00              1.00
  XR-Pump-2            PUMP        95.00     0  00:00              1.00
  XR-Pump-3            PUMP        95.00     0  00:00              1.00
  XR-Pump-4            PUMP        95.00     0  00:00              1.00
  3                    WEIR       460.77     0  01:57                      0.27
  5                    WEIR       607.25     0  01:59                      0.32
  6                    WEIR       475.99     0  02:04                      0.27
  
  
  ***************************
  Flow Classification Summary
  ***************************
  
  -------------------------------------------------------------------------------------
                      Adjusted    ---------- Fraction of Time in Flow Class ---------- 
                       /Actual         Up    Down  Sub   Sup   Up    Down  Norm  Inlet 
  Conduit               Length    Dry  Dry   Dry   Crit  Crit  Crit  Crit  Ltd   Ctrl  
  -------------------------------------------------------------------------------------
  WS02003066WSF200        1.00   0.12  0.00  0.00  0.00  0.88  0.00  0.00  0.75  0.00
  WS02006287WS02006284    1.00   0.04  0.02  0.00  0.51  0.43  0.00  0.00  0.62  0.00
  WS02006284WS02006280    1.00   0.06  0.00  0.00  0.00  0.00  0.00  0.94  0.00  0.00
  WS02006280WS02006229    1.00   0.06  0.00  0.00  0.00  0.00  0.00  0.94  0.00  0.00
  WS02006229WS02006228    1.00   0.00  0.00  0.00  0.99  0.00  0.00  0.01  0.00  0.00
  WS02006256WS02006235    1.00   0.00  0.00  0.00  0.16  0.84  0.00  0.00  0.01  0.00
  WS02006253WS02006251    1.00   0.02  0.03  0.00  0.90  0.00  0.05  0.00  0.00  0.00
  WS02006252WS02006251    1.00   0.09  0.00  0.00  0.00  0.00  0.91  0.00  0.00  0.00
  WS02006251WS02006249    1.00   0.00  0.00  0.00  1.00  0.00  0.00  0.00  0.15  0.00
  WS02006249WS02006248    1.00   0.00  0.06  0.00  0.89  0.00  0.05  0.00  0.00  0.00
  WS02006248WS02006247    1.00   0.06  0.00  0.00  0.92  0.00  0.00  0.02  0.01  0.00
  WS02006247WS02006245    1.00   0.06  0.00  0.00  0.90  0.00  0.00  0.03  0.00  0.00
  WS02006245WS02006243    1.00   0.06  0.00  0.00  0.89  0.00  0.00  0.05  0.00  0.00
  WS02006243WS02006242    1.00   0.07  0.00  0.00  0.90  0.00  0.00  0.03  0.63  0.00
  WS02006242WS02006240    1.00   0.00  0.07  0.00  0.93  0.00  0.00  0.00  0.17  0.00
  WS02006240WS02006239    1.00   0.00  0.00  0.00  0.92  0.00  0.00  0.08  0.00  0.00
  WS02006239WS02006238    1.00   0.00  0.00  0.00  1.00  0.00  0.00  0.00  0.17  0.00
  WS02006238WS02006235    1.00   0.00  0.00  0.00  1.00  0.00  0.00  0.00  0.00  0.00
  WS02006235WS02006234    1.00   0.07  0.00  0.00  0.92  0.00  0.01  0.01  0.00  0.00
  WS02006234WS02006232    1.00   0.00  0.00  0.00  1.00  0.00  0.00  0.00  0.13  0.00
  WS02006232WS02006231    1.00   0.00  0.00  0.00  0.99  0.00  0.00  0.00  0.01  0.00
  WS02006231WS02006230    1.00   0.00  0.00  0.00  0.35  0.00  0.65  0.00  0.00  0.00
  WS02006230WS02006229    1.00   0.00  0.00  0.00  0.99  0.00  0.00  0.01  0.02  0.00
  WS02006228WS02006109    1.00   0.00  0.00  0.00  1.00  0.00  0.00  0.00  0.00  0.00
  WS02006116WS02004401    1.00   0.04  0.00  0.00  0.96  0.00  0.00  0.00  0.00  0.00
  WS02006115WS02006116    1.00   0.04  0.00  0.00  0.92  0.00  0.00  0.04  0.00  0.00
  WS02006113WS02006111    1.00   0.03  0.00  0.00  0.01  0.96  0.00  0.00  0.09  0.00
  WS02006112WS02006115    1.00   0.03  0.02  0.00  0.95  0.00  0.00  0.00  0.00  0.00
  WS02006111WS02006112    1.00   0.03  0.00  0.00  0.97  0.00  0.00  0.00  0.93  0.00
  WS02006110WS02006113    1.00   0.01  0.02  0.00  0.97  0.00  0.00  0.00  0.00  0.00
  WS02006109WS02006110    1.00   0.00  0.01  0.00  0.99  0.00  0.00  0.00  0.00  0.00
  WS02004411WS02004412    1.00   0.09  0.00  0.00  0.91  0.00  0.00  0.00  0.00  0.00
  WS02004401WS02004402    1.00   0.04  0.00  0.00  0.96  0.00  0.00  0.00  0.03  0.00
  WS02004413WS02003067    1.00   0.10  0.02  0.00  0.00  0.00  0.89  0.00  0.00  0.00
  WS02004412WS02004413    1.00   0.09  0.00  0.00  0.90  0.00  0.00  0.00  0.00  0.00
  WS02004410WS02004411    1.00   0.09  0.00  0.00  0.91  0.00  0.00  0.00  0.00  0.00
  WS02004409WS02004410    1.00   0.09  0.00  0.00  0.91  0.00  0.00  0.00  0.00  0.00
  WS02004407WS02004409    1.00   0.09  0.00  0.00  0.89  0.02  0.00  0.00  0.81  0.00
  WS02004406WS02004407    1.00   0.00  0.09  0.00  0.91  0.00  0.00  0.00  0.00  0.00
  WS02004405WS02004406    1.00   0.00  0.00  0.00  1.00  0.00  0.00  0.00  0.04  0.00
  WS02004404WS02004405    1.00   0.00  0.00  0.00  1.00  0.00  0.00  0.00  0.00  0.00
  WS02004403WS02004404    1.00   0.00  0.05  0.00  0.95  0.00  0.00  0.00  0.04  0.00
  WS02004402WS02004403    1.00   0.04  0.00  0.00  0.96  0.00  0.00  0.00  0.00  0.00
  WS02004139WS02001211    1.00   0.00  0.00  0.00  1.00  0.00  0.00  0.00  0.00  0.00
  WS02004138WS02004139    1.00   0.00  0.00  0.00  0.00  0.30  0.00  0.70  0.23  0.00
  WS02003067WS02003066    1.00   0.11  0.00  0.00  0.88  0.00  0.00  0.00  0.00  0.00
  WS02001213WS02003059    1.00   0.00  0.00  0.00  0.99  0.00  0.00  0.00  0.00  0.00
  WS02001212WS02001213    1.00   0.00  0.00  0.00  0.36  0.00  0.64  0.00  0.00  0.00
  WS02001211WS02001212    1.00   0.00  0.00  0.00  1.00  0.00  0.00  0.00  0.17  0.00
  WS02003072WS02003073    1.00   0.00  0.00  0.00  0.00  0.00  0.00  1.00  0.00  0.00
  WS02003069WS02003072    1.00   0.00  0.00  0.00  1.00  0.00  0.00  0.00  0.87  0.00
  WS02003060WS02003069    1.00   0.00  0.00  0.00  0.98  0.02  0.00  0.00  0.79  0.00
  WS02003059WS02003060    1.00   0.00  0.00  0.00  1.00  0.00  0.00  0.00  0.05  0.00
  HS02004901HS02004770    1.00   0.05  0.00  0.00  0.95  0.00  0.00  0.00  0.00  0.00
  HS02004876HS02004881    1.00   0.01  0.00  0.00  0.71  0.28  0.00  0.00  0.00  0.00
  HS02004870HS02004876    1.00   0.00  0.00  0.00  0.99  0.00  0.00  0.00  0.95  0.00
  HS02004842HS02004848    1.00   0.00  0.05  0.00  0.95  0.00  0.00  0.00  0.56  0.00
  HS02004837HS02004842    1.00   0.00  0.00  0.00  1.00  0.00  0.00  0.00  0.11  0.00
  HS02004830HS02004837    1.00   0.00  0.00  0.00  1.00  0.00  0.00  0.00  0.99  0.00
  HS02004824HS02004830    1.00   0.00  0.00  0.00  1.00  0.00  0.00  0.00  0.03  0.00
  HS02004817HS02004824    1.00   0.00  0.00  0.00  1.00  0.00  0.00  0.00  0.90  0.00
  HS02004770HS02004777    1.00   0.00  0.05  0.00  0.95  0.00  0.00  0.00  0.01  0.00
  HS02004799HS02004480    1.00   0.00  0.01  0.00  0.94  0.00  0.05  0.00  0.00  0.00
  HS02004792HS02004799    1.00   0.00  0.00  0.00  0.99  0.01  0.00  0.00  0.98  0.00
  HS02004788HS02004792    1.00   0.00  0.00  0.00  0.99  0.01  0.00  0.00  0.98  0.00
  HS02004785HS02004788    1.00   0.00  0.00  0.00  1.00  0.00  0.00  0.00  0.00  0.00
  HS02004777HS02004785    1.00   0.00  0.00  0.00  1.00  0.00  0.00  0.00  0.10  0.00
  HS02004480HS02004478    1.00   0.05  0.00  0.00  0.55  0.00  0.00  0.39  0.00  0.00
  HS02004479HS02004480    1.00   0.02  0.00  0.00  0.98  0.00  0.00  0.00  0.10  0.00
  HS02004862HS02004870    1.00   0.00  0.00  0.00  1.00  0.00  0.00  0.00  0.02  0.00
  HS02004848HS02004852    1.00   0.05  0.00  0.00  0.95  0.00  0.00  0.00  0.79  0.00
  HS02004856HS02004862    1.00   0.00  0.06  0.00  0.94  0.00  0.00  0.00  0.85  0.00
  HS02004852HS02004856    1.00   0.05  0.00  0.00  0.94  0.00  0.00  0.00  0.74  0.00
  HS02004802HS02004478    1.00   0.05  0.00  0.00  0.94  0.00  0.00  0.00  0.02  0.00
  HS02004478WS02006287    1.00   0.06  0.00  0.00  0.60  0.34  0.00  0.00  0.62  0.00
  HS02004817HS02004807    1.00   0.00  0.05  0.00  0.95  0.00  0.00  0.00  0.01  0.00
  HS02004807HS02004802    1.00   0.05  0.00  0.00  0.94  0.00  0.00  0.01  0.00  0.00
  YS02001759YS02001757    1.00   0.00  0.00  0.00  1.00  0.00  0.00  0.00  0.15  0.00
  YS02001762YS02001759    1.00   0.00  0.00  0.00  1.00  0.00  0.00  0.00  0.02  0.00
  YS02001765YS02001762    1.00   0.00  0.00  0.00  1.00  0.00  0.00  0.00  0.12  0.00
  YS02001770YS02001767    1.00   0.00  0.00  0.00  1.00  0.00  0.00  0.00  0.00  0.00
  YS02001774YS02001770    1.00   0.00  0.05  0.00  0.95  0.00  0.00  0.00  0.01  0.00
  YS02001779YS02001774    1.00   0.00  0.00  0.00  1.00  0.00  0.00  0.00  0.16  0.00
  YS02001649YS02001757    1.00   0.00  0.00  0.00  1.00  0.00  0.00  0.00  0.15  0.00
  YS02001767YS02001765    1.00   0.00  0.00  0.00  1.00  0.00  0.00  0.00  0.00  0.00
  YS02006561YS02001783    1.00   0.07  0.00  0.00  0.37  0.56  0.00  0.00  0.40  0.00
  YS02001783YS02001784    1.00   0.00  0.07  0.00  0.93  0.00  0.00  0.00  0.00  0.00
  YS02001784YS02001785    1.00   0.00  0.00  0.00  1.00  0.00  0.00  0.00  0.15  0.00
  YS02001788YS02001790    1.00   0.00  0.00  0.00  0.34  0.66  0.00  0.00  0.38  0.00
  YS02001790YS02001791    1.00   0.00  0.00  0.00  0.22  0.78  0.00  0.00  0.53  0.00
  YS02001791YS02001793    1.00   0.00  0.00  0.00  0.22  0.78  0.00  0.00  0.01  0.00
  YS02001910YS02001907    1.00   0.00  0.00  0.00  0.99  0.00  0.00  0.01  0.11  0.00
  YS02001786YS02001788    1.00   0.00  0.00  0.00  0.40  0.60  0.00  0.00  0.00  0.00
  YS02001915YS02001910    1.00   0.00  0.00  0.00  0.99  0.01  0.00  0.00  0.13  0.00
  YS02001918YS02001915    1.00   0.00  0.00  0.00  0.99  0.01  0.00  0.00  0.49  0.00
  YS02001923YS02001920    1.00   0.00  0.00  0.00  1.00  0.00  0.00  0.00  0.72  0.00
  YS02001926YS02001923    1.00   0.00  0.03  0.00  0.31  0.00  0.66  0.00  0.00  0.00
  YS02001929YS02001926    1.00   0.00  0.05  0.00  0.95  0.00  0.00  0.00  0.63  0.00
  YS02001920YS02001918    1.00   0.00  0.00  0.00  1.00  0.00  0.00  0.00  0.00  0.00
  YS02001629YS02163301    1.00   0.06  0.00  0.00  0.94  0.00  0.00  0.00  0.00  0.00
  YS02001619YS02001622    1.00   0.05  0.00  0.00  0.95  0.00  0.00  0.00  0.00  0.00
  YS02001622YS02001625    1.00   0.05  0.00  0.00  0.95  0.00  0.00  0.00  0.03  0.00
  YS02001625YS02001629    1.00   0.05  0.02  0.00  0.91  0.00  0.02  0.00  0.00  0.00
  YS02163301YS02001633    1.00   0.00  0.06  0.00  0.94  0.00  0.00  0.00  0.00  0.00
  YS02163601YS02164001    1.00   0.00  0.03  0.00  0.97  0.00  0.00  0.00  0.00  0.00
  YS02164001YS02001641    1.00   0.01  0.03  0.00  0.96  0.00  0.00  0.00  0.05  0.00
  YS02001641YS02001644    1.00   0.00  0.00  0.00  1.00  0.00  0.00  0.00  0.00  0.00
  YS02001647YS02001649    1.00   0.00  0.06  0.00  0.93  0.00  0.00  0.00  0.01  0.00
  YS02006553YS02006556    1.00   0.01  0.00  0.00  0.99  0.00  0.00  0.00  0.03  0.00
  YS02006556YS02006558    1.00   0.00  0.00  0.00  1.00  0.00  0.00  0.00  0.00  0.00
  YSB6556YSB1171          1.00   0.02  0.03  0.00  0.95  0.00  0.00  0.00  0.00  0.00
  YS02001907YS02006553    1.00   0.00  0.01  0.00  0.99  0.00  0.00  0.00  0.00  0.00
  YS02006558YS02006561    1.00   0.07  0.00  0.00  0.30  0.63  0.00  0.00  0.43  0.00
  YS02001633YS02163601    1.00   0.00  0.00  0.00  1.00  0.00  0.00  0.00  0.14  0.00
  YS02001644YS02001647    1.00   0.00  0.06  0.00  0.93  0.00  0.00  0.00  0.00  0.00
  YS02001745YS02001748    1.00   0.00  0.00  0.00  0.88  0.00  0.00  0.11  0.01  0.00
  YS02001748YS02001751    1.00   0.00  0.00  0.00  0.96  0.04  0.00  0.00  0.13  0.00
  YS02001751YS02001754    1.00   0.00  0.00  0.00  0.92  0.00  0.00  0.08  0.01  0.00
  YS02001754YS02001757    1.00   0.00  0.00  0.00  1.00  0.00  0.00  0.00  0.16  0.00
  YS02001882YS02001884    1.00   0.06  0.00  0.00  0.94  0.00  0.00  0.00  0.00  0.00
  YS02001884YS02001887    1.00   0.03  0.02  0.00  0.95  0.00  0.00  0.00  0.00  0.00
  YS02001890YS02001895    1.00   0.00  0.06  0.00  0.94  0.00  0.00  0.00  0.00  0.00
  YS02001895YS02001898    1.00   0.06  0.00  0.00  0.93  0.00  0.01  0.00  0.00  0.00
  YS02001898YS02001901    1.00   0.06  0.00  0.00  0.94  0.00  0.00  0.00  0.01  0.00
  YS02001901YS02001904    1.00   0.06  0.00  0.00  0.94  0.00  0.00  0.00  0.00  0.00
  YS02001904YS02001907    1.00   0.00  0.06  0.00  0.94  0.00  0.00  0.00  0.00  0.00
  YS02001887YS02001890    1.00   0.00  0.00  0.00  0.99  0.00  0.01  0.00  0.00  0.00
  YS02001652YS02001649    1.00   0.00  0.00  0.00  1.00  0.00  0.00  0.00  0.14  0.00
  YS02001655YS02001652    1.00   0.00  0.00  0.00  0.92  0.00  0.00  0.07  0.01  0.00
  YS02001658YS02001655    1.00   0.00  0.06  0.00  0.91  0.04  0.00  0.00  0.02  0.00
  YS02001661YS02001658    1.00   0.06  0.00  0.00  0.88  0.06  0.00  0.00  0.01  0.00
  YS02001664YS02001661    1.00   0.05  0.00  0.00  0.89  0.06  0.00  0.00  0.09  0.00
  YSB1154YSB6556          1.00   0.05  0.00  0.00  0.95  0.00  0.00  0.00  0.01  0.00
  YSB1174YSB1171          1.00   0.02  0.02  0.00  0.96  0.00  0.00  0.00  0.00  0.00
  YSB1171HS02004479       1.00   0.02  0.00  0.00  0.98  0.00  0.00  0.01  0.09  0.00
  HS02004881HS02006253    1.00   0.02  0.00  0.00  0.00  0.00  0.00  0.98  0.00  0.00
  YS02001793JiankangQianchi    1.00   0.00  0.00  0.00  0.30  0.70  0.00  0.00  0.07  0.00
  YS02001757CaochengTiaoxuchi    1.00   0.00  0.09  0.00  0.83  0.08  0.00  0.00  0.00  0.00
  WSF200WS02003060        1.00   0.00  0.12  0.00  0.00  0.88  0.00  0.00  0.58  0.00
  1                       1.00   0.00  0.00  0.00  0.00  1.00  0.00  0.00  0.27  0.00
  
  
  *************************
  Conduit Surcharge Summary
  *************************
  
  ----------------------------------------------------------------------------
                                                           Hours        Hours 
                         --------- Hours Full --------   Above Full   Capacity
  Conduit                Both Ends  Upstream  Dnstream   Normal Flow   Limited
  ----------------------------------------------------------------------------
  WS02006229WS02006228        0.84      0.88      0.84      1.58         0.84
  WS02006256WS02006235        0.34      0.34      6.66      6.64         0.01
  WS02006252WS02006251        6.48      6.48      6.49      6.49         0.01
  WS02006235WS02006234        0.01      0.01      0.01      0.79         0.01
  WS02006231WS02006230        0.01      0.01      0.01      0.99         0.01
  WS02006230WS02006229        1.15      1.15      1.16      4.45         0.01
  WS02006228WS02006109        0.86      1.01      0.86      1.79         0.86
  WS02006112WS02006115        0.01      0.01      0.49      0.01         0.01
  WS02006111WS02006112        0.01      0.01      1.60      0.01         0.01
  WS02006110WS02006113        0.01      0.01      0.93      0.01         0.01
  WS02006109WS02006110        0.21      0.21      1.01      0.21         0.01
  WS02004405WS02004406        0.01      0.01      0.01      0.40         0.01
  WS02004404WS02004405        0.01      0.03      0.01      2.40         0.01
  WS02004403WS02004404        0.01      0.01      0.03      0.01         0.01
  WS02003072WS02003073        0.01      0.01      0.01      0.34         0.01
  HS02004876HS02004881        0.01      0.01      0.01      0.73         0.01
  HS02004817HS02004824        0.01      0.01      0.26      0.01         0.01
  HS02004785HS02004788        0.01      0.01      0.01      0.67         0.01
  HS02004480HS02004478        0.01      0.01      0.01      1.49         0.01
  HS02004817HS02004807        0.01      0.01      0.26      0.01         0.01
  YS02001759YS02001757        6.40      6.40      6.42      0.01         0.01
  YS02001762YS02001759        6.39      6.39      6.40      0.01         0.01
  YS02001765YS02001762        6.38      6.38      6.39      0.01         0.01
  YS02001770YS02001767        6.37      6.37      6.37      0.39         0.71
  YS02001774YS02001770        6.37      6.37      6.38      0.01         0.01
  YS02001779YS02001774        6.32      6.32      6.38      0.01         0.01
  YS02001649YS02001757        6.39      6.39      6.42      0.01         0.01
  YS02001767YS02001765        6.37      6.37      6.38      0.01         0.01
  YS02006561YS02001783        1.87      1.87      2.11      0.01         0.01
  YS02001783YS02001784        2.08      2.11      2.08      2.39         2.08
  YS02001784YS02001785        1.97      2.08      1.97      3.16         1.97
  YS02001788YS02001790        1.35      1.35      1.45      0.01         0.01
  YS02001790YS02001791        1.44      1.45      1.44      2.06         1.44
  YS02001791YS02001793        1.44      1.44      1.61      0.01         0.01
  YS02001910YS02001907        2.15      2.15      2.66      0.01         0.01
  YS02001786YS02001788        1.35      1.97      1.35      2.77         1.35
  YS02001915YS02001910        2.00      2.00      2.15      0.01         0.01
  YS02001918YS02001915        1.85      1.85      2.00      0.01         0.01
  YS02001923YS02001920        1.69      1.69      1.88      0.01         0.01
  YS02001926YS02001923        0.01      0.01      0.01      0.01         0.01
  YS02001929YS02001926        0.01      0.01      0.01      0.01         0.01
  YS02001920YS02001918        1.85      1.85      1.88      0.01         0.01
  YS02001629YS02163301        6.36      6.36      6.36      0.01         0.01
  YS02001619YS02001622        6.28      6.28      6.28      0.01         0.03
  YS02001622YS02001625        6.28      6.28      6.35      0.01         0.01
  YS02001625YS02001629        6.28      6.28      6.35      0.01         0.01
  YS02163301YS02001633        6.36      6.36      6.37      0.01         0.01
  YS02163601YS02164001        6.37      6.37      6.39      0.01         0.01
  YS02164001YS02001641        6.37      6.37      6.38      0.01         0.01
  YS02001641YS02001644        6.38      6.38      6.38      2.64         2.96
  YS02001647YS02001649        6.34      6.34      6.39      0.01         0.01
  YS02006553YS02006556        2.33      2.33      2.72      0.01         0.01
  YS02006556YS02006558        2.44      2.44      2.78      0.01         0.01
  YSB6556YSB1171              0.01      0.01      0.40      0.01         0.01
  YS02001907YS02006553        3.17      3.17      3.37      0.01         0.01
  YS02006558YS02006561        1.95      2.30      1.95      3.02         1.95
  YS02001633YS02163601        6.37      6.37      6.39      0.01         0.01
  YS02001644YS02001647        6.34      6.34      6.38      0.01         0.01
  YS02001745YS02001748        0.01      0.01      5.70      0.01         0.01
  YS02001748YS02001751        6.06      6.06      6.27      0.01         0.01
  YS02001751YS02001754        6.27      6.27      6.32      0.01         0.01
  YS02001754YS02001757        6.33      6.33      6.42      0.01         0.01
  YS02001882YS02001884        2.02      2.02      2.03      0.01         0.01
  YS02001884YS02001887        2.07      2.07      2.09      0.01         0.01
  YS02001890YS02001895        1.99      1.99      2.16      0.01         0.01
  YS02001895YS02001898        1.98      1.98      1.99      0.01         0.01
  YS02001898YS02001901        2.00      2.00      2.06      0.01         0.01
  YS02001901YS02001904        2.05      2.05      2.06      0.01         0.01
  YS02001904YS02001907        2.05      2.05      2.75      0.01         0.01
  YS02001887YS02001890        2.11      2.11      2.13      1.12         0.01
  YS02001652YS02001649        6.34      6.34      6.39      0.01         0.01
  YS02001655YS02001652        6.28      6.28      6.33      0.01         0.01
  YS02001658YS02001655        5.78      5.78      6.28      0.01         0.01
  YS02001661YS02001658        0.63      0.63      5.78      0.01         0.01
  YS02001664YS02001661        0.01      0.01      1.67      0.01         0.01
  YS02001793JiankangQianchi        1.56      1.56      2.26      0.01         0.01
  YS02001757CaochengTiaoxuchi        5.80      5.80      6.42      0.01         0.01
  
  
  ***************
  Pumping Summary
  ***************
  
  ---------------------------------------------------------------------------------------------------------
                                                  Min       Avg       Max     Total     Power    % Time Off
                        Percent   Number of      Flow      Flow      Flow    Volume     Usage    Pump Curve
  Pump                 Utilized   Start-Ups       LPS       LPS       LPS  10^6 ltr     Kw-hr    Low   High
  ---------------------------------------------------------------------------------------------------------
  CC-Pump-1               81.67           1      0.00    198.23    200.00     4.681      8.02    0.0    6.0
  CC-Pump-2               81.67           1      0.00    198.23    200.00     4.681      8.02    0.0    6.0
  JK-Pump-1              100.00           1      0.00    240.83    300.00     6.013    105.62    0.0    0.0
  JK-Pump-2              100.00           1      0.00    423.06    683.00    10.196    160.26    0.0   98.0
  XR-Pump-1              100.00           1      0.00     95.00     95.00     2.736     25.02    0.0    0.0
  XR-Pump-2              100.00           1      0.00     95.00     95.00     2.736     25.02    0.0    0.0
  XR-Pump-3              100.00           1      0.00     95.00     95.00     2.736     25.02    0.0    0.0
  XR-Pump-4              100.00           1      0.00     95.00     95.00     2.736     25.02    0.0    0.0
  
  
  ***************************
  Link Pollutant Load Summary
  ***************************
  
  ------------------------------------------------------------------------------------------
                                 COD            SS            TN            TP         NH4-N
  Link                            kg            kg            kg            kg            kg
  ------------------------------------------------------------------------------------------
  WS02003066WSF200           482.088       937.809        13.453         1.241         7.169
  WS02006287WS02006284       523.536      1027.155        14.417         1.323         7.662
  WS02006284WS02006280       524.016      1027.905        14.465         1.329         7.692
  WS02006280WS02006229       524.008      1027.902        14.463         1.328         7.691
  WS02006229WS02006228       461.169       896.384        13.051         1.208         6.976
  WS02006256WS02006235       326.710       639.134         6.381         0.460         3.117
  WS02006253WS02006251        91.956       186.660         1.900         0.136         0.922
  WS02006252WS02006251       938.306      1800.864        18.252         1.256         8.814
  WS02006251WS02006249       179.469       346.353         3.514         0.243         1.699
  WS02006249WS02006248       179.138       345.736         3.506         0.243         1.694
  WS02006248WS02006247       178.997       345.496         3.503         0.242         1.693
  WS02006247WS02006245       178.746       345.037         3.497         0.242         1.690
  WS02006245WS02006243       178.440       344.478         3.491         0.241         1.687
  WS02006243WS02006242       178.186       344.038         3.485         0.241         1.684
  WS02006242WS02006240       177.738       343.224         3.475         0.240         1.679
  WS02006240WS02006239       177.440       342.676         3.469         0.240         1.676
  WS02006239WS02006238       177.083       342.019         3.462         0.239         1.673
  WS02006238WS02006235       177.064       341.997         3.461         0.239         1.672
  WS02006235WS02006234       114.940       230.348         2.440         0.192         1.213
  WS02006234WS02006232       115.581       231.574         2.456         0.193         1.221
  WS02006232WS02006231       116.489       233.313         2.479         0.195         1.232
  WS02006231WS02006230       117.070       234.418         2.494         0.196         1.240
  WS02006230WS02006229       118.854       237.805         2.538         0.200         1.263
  WS02006228WS02006109       460.664       895.586        13.004         1.202         6.947
  WS02006116WS02004401       487.928       947.181        13.945         1.301         7.474
  WS02006115WS02006116       488.240       947.627        13.988         1.306         7.501
  WS02006113WS02006111       467.997       907.314        13.718         1.291         7.393
  WS02006112WS02006115       488.792       948.544        14.031         1.312         7.528
  WS02006111WS02006112       467.899       907.190        13.702         1.289         7.383
  WS02006110WS02006113       468.160       907.584        13.731         1.293         7.402
  WS02006109WS02006110       468.839       908.687        13.791         1.300         7.439
  WS02004411WS02004412       483.804       940.559        13.597         1.259         7.259
  WS02004401WS02004402       487.229       946.028        13.890         1.294         7.440
  WS02004413WS02003067       482.550       938.589        13.487         1.245         7.190
  WS02004412WS02004413       483.281       939.730        13.548         1.252         7.228
  WS02004410WS02004411       484.152       941.107        13.631         1.263         7.280
  WS02004409WS02004410       484.422       941.520        13.659         1.266         7.297
  WS02004407WS02004409       484.647       941.872        13.681         1.269         7.311
  WS02004406WS02004407       484.721       941.976        13.690         1.270         7.317
  WS02004405WS02004406       486.287       944.524        13.820         1.286         7.397
  WS02004404WS02004405       486.798       945.364        13.861         1.291         7.423
  WS02004403WS02004404       485.936       943.919        13.785         1.281         7.375
  WS02004402WS02004403       486.584       944.982        13.835         1.288         7.406
  WS02004139WS02001211        75.466       137.503         4.235         0.491         2.537
  WS02004138WS02004139      1303.951      2244.236        91.635        10.931        55.755
  WS02003067WS02003066       482.094       937.801        13.456         1.241         7.172
  WS02001213WS02003059        68.609       128.229         3.215         0.359         1.886
  WS02001212WS02001213        70.979       131.198         3.625         0.412         2.149
  WS02001211WS02001212        72.141       132.559         3.836         0.440         2.285
  WS02003072WS02003073       565.170      1054.076        24.423         2.650        14.135
  WS02003069WS02003072       566.558      1056.185        24.572         2.669        14.229
  WS02003060WS02003069       564.841      1053.419        24.409         2.649        14.127
  WS02003059WS02003060        71.687       134.835         3.147         0.345         1.829
  HS02004901HS02004770        23.752        47.151         0.456         0.035         0.216
  HS02004876HS02004881        78.604       159.503         1.668         0.120         0.812
  HS02004870HS02004876        60.024       121.774         1.319         0.095         0.644
  HS02004842HS02004848        11.483        22.638         0.237         0.016         0.110
  HS02004837HS02004842        16.145        30.056         0.708         0.076         0.406
  HS02004830HS02004837        90.027       163.011         5.108         0.591         3.065
  HS02004824HS02004830        90.843       164.354         5.183         0.601         3.112
  HS02004817HS02004824       134.954       255.360         6.072         0.658         3.543
  HS02004770HS02004777        90.800       182.828         1.867         0.129         0.871
  HS02004799HS02004480       287.531       566.419         6.767         0.567         3.405
  HS02004792HS02004799       262.540       514.780         6.335         0.541         3.205
  HS02004788HS02004792       140.410       276.288         3.856         0.343         2.007
  HS02004785HS02004788        92.229       185.105         2.016         0.148         0.965
  HS02004777HS02004785        91.541       184.011         1.952         0.140         0.925
  HS02004480HS02004478       358.171       708.173         8.018         0.660         4.005
  HS02004479HS02004480        74.275       147.658         1.555         0.130         0.788
  HS02004862HS02004870        46.059        92.350         1.040         0.079         0.510
  HS02004848HS02004852        19.916        39.750         0.404         0.028         0.188
  HS02004856HS02004862        31.842        64.518         0.637         0.043         0.301
  HS02004852HS02004856        19.931        39.776         0.404         0.028         0.188
  HS02004802HS02004478       166.354       320.577         6.467         0.671         3.699
  HS02004478WS02006287       523.675      1027.343        14.434         1.325         7.673
  HS02004817HS02004807       133.695       253.381         5.938         0.641         3.459
  HS02004807HS02004802       166.496       320.796         6.498         0.675         3.719
  YS02001759YS02001757       609.373      1166.989        11.880         0.834         5.789
  YS02001762YS02001759       248.789       471.918         5.144         0.362         2.532
  YS02001765YS02001762       249.835       475.047         5.179         0.365         2.552
  YS02001770YS02001767       252.593       483.683         5.049         0.342         2.457
  YS02001774YS02001770       508.785      1015.162         9.811         0.661         4.750
  YS02001779YS02001774       507.675      1013.064         9.862         0.671         4.789
  YS02001649YS02001757       454.269       847.834         9.013         0.635         4.323
  YS02001767YS02001765       251.641       479.658         5.224         0.368         2.575
  YS02006561YS02001783      1449.237      2763.894        29.801         2.193        14.722
  YS02001783YS02001784      1449.221      2763.923        29.798         2.193        14.721
  YS02001784YS02001785      1456.844      2776.210        30.528         2.284        15.177
  YS02001788YS02001790      1457.636      2777.611        30.605         2.294        15.225
  YS02001790YS02001791      1458.918      2779.888        30.710         2.307        15.290
  YS02001791YS02001793      1458.971      2780.027        30.708         2.306        15.289
  YS02001910YS02001907       711.958      1364.876        15.611         1.134         7.824
  YS02001786YS02001788      1457.191      2776.878        30.559         2.288        15.197
  YS02001915YS02001910       711.934      1364.793        15.567         1.128         7.795
  YS02001918YS02001915       349.076       643.349         8.208         0.689         4.261
  YS02001923YS02001920       324.498       601.818         6.156         0.438         2.991
  YS02001926YS02001923       321.757       597.000         6.042         0.426         2.925
  YS02001929YS02001926       320.174       594.249         5.970         0.418         2.883
  YS02001920YS02001918       345.762       636.310         8.128         0.683         4.220
  YS02001629YS02163301       141.209       260.875         2.839         0.196         1.345
  YS02001619YS02001622       331.392       629.795         6.665         0.446         3.137
  YS02001622YS02001625       330.454       628.343         6.641         0.445         3.126
  YS02001625YS02001629       136.833       251.949         2.767         0.189         1.309
  YS02163301YS02001633       146.417       271.134         2.925         0.203         1.389
  YS02163601YS02164001       598.763      1116.873        11.538         0.840         5.558
  YS02164001YS02001641       598.769      1116.893        11.527         0.839         5.551
  YS02001641YS02001644       599.908      1118.829        11.542         0.840         5.557
  YS02001647YS02001649       627.839      1183.524        12.441         0.882         5.934
  YS02006553YS02006556       846.136      1587.003        17.983         1.355         8.994
  YS02006556YS02006558       846.547      1587.778        17.954         1.351         8.973
  YSB6556YSB1171              43.294        86.240         0.851         0.069         0.424
  YS02001907YS02006553       845.936      1586.632        18.008         1.359         9.012
  YS02006558YS02006561      1449.184      2763.760        29.800         2.193        14.722
  YS02001633YS02163601       599.231      1117.575        11.512         0.835         5.538
  YS02001644YS02001647       634.854      1197.429        12.554         0.891         5.989
  YS02001745YS02001748       448.119       872.957         8.886         0.567         4.285
  YS02001748YS02001751       447.718       872.256         8.915         0.572         4.306
  YS02001751YS02001754       446.875       870.901         8.899         0.571         4.300
  YS02001754YS02001757       447.803       872.339         9.068         0.594         4.409
  YS02001882YS02001884         3.537         6.255         0.068         0.005         0.033
  YS02001884YS02001887         7.501        13.538         0.142         0.011         0.070
  YS02001890YS02001895       689.636      1328.122        12.874         0.977         6.291
  YS02001895YS02001898       689.598      1328.164        12.869         0.976         6.288
  YS02001898YS02001901       689.481      1327.942        12.867         0.976         6.286
  YS02001901YS02001904       689.488      1328.021        12.879         0.978         6.294
  YS02001904YS02001907       689.878      1328.634        12.936         0.985         6.331
  YS02001887YS02001890       831.959      1613.550        15.458         1.175         7.552
  YS02001652YS02001649       405.887       779.175         8.055         0.585         3.793
  YS02001655YS02001652       406.651       780.366         8.076         0.587         3.803
  YS02001658YS02001655       406.387       779.909         7.994         0.575         3.748
  YS02001661YS02001658       407.332       781.472         8.017         0.577         3.758
  YS02001664YS02001661       415.396       794.114         8.214         0.590         3.849
  YSB1154YSB6556              42.892        85.619         0.805         0.063         0.396
  YSB1174YSB1171              29.512        59.094         0.578         0.046         0.286
  YSB1171HS02004479           74.202       147.522         1.561         0.131         0.792
  HS02004881HS02006253        87.920       178.631         1.847         0.132         0.898
  YS02001793JiankangQianchi      1459.322      2780.765        30.711         2.307        15.290
  YS02001757CaochengTiaoxuchi      1144.908      2172.126        22.664         1.561        10.963
  WSF200WS02003060           481.968       937.596        13.446         1.240         7.165
  1                          577.404      1073.388        25.642         2.803        14.899
  CC-Pump-1                  469.181       900.478         9.127         0.628         4.407
  CC-Pump-2                  469.181       900.478         9.127         0.628         4.407
  JK-Pump-1                  349.676       684.044         6.828         0.493         3.335
  JK-Pump-2                  796.095      1557.340        15.544         1.122         7.592
  XR-Pump-1                  326.280       561.550        22.931         2.735        13.953
  XR-Pump-2                  326.280       561.550        22.931         2.735        13.953
  XR-Pump-3                  326.280       561.550        22.931         2.735        13.953
  XR-Pump-4                  326.280       561.550        22.931         2.735        13.953
  3                          851.055      1641.552        16.685         1.155         8.068
  5                          566.037      1111.719        11.215         0.816         5.480
  6                         1381.337      2384.837        96.050        11.445        58.405
  

  Analysis begun on:  Thu Jul  8 15:41:29 2021
  Analysis ended on:  Thu Jul  8 15:41:31 2021
  Total elapsed time: 00:00:02