
  EPA STORM WATER MANAGEMENT MODEL - VERSION 5.1 (Build 5.3.0.dev0)
  --------------------------------------------------------------

  WARNING 04: minimum elevation drop used for Conduit WS02004404WS02004405
  WARNING 03: negative offset ignored for Link YS02001904YS02001907
  
  *********************************************************
  NOTE: The summary statistics displayed in this report are
  based on results found at every computational time step,  
  not just on results from each reporting time step.
  *********************************************************
  
  ****************
  Analysis Options
  ****************
  Flow Units ............... LPS
  Process Models:
    Rainfall/Runoff ........ YES
    RDII ................... NO
    Snowmelt ............... NO
    Groundwater ............ NO
    Flow Routing ........... YES
    Ponding Allowed ........ NO
    Water Quality .......... NO
  Infiltration Method ...... HORTON
  Flow Routing Method ...... DYNWAVE
  Surcharge Method ......... EXTRAN
  Starting Date ............ 08/28/2015 08:00:00
  Ending Date .............. 08/28/2015 15:50:00
  Antecedent Dry Days ...... 8.0
  Report Time Step ......... 00:01:00
  Wet Time Step ............ 00:01:00
  Dry Time Step ............ 00:01:00
  Routing Time Step ........ 5.00 sec
  Variable Time Step ....... YES
  Maximum Trials ........... 8
  Number of Threads ........ 4
  Head Tolerance ........... 0.001500 m
  
  
  **************************        Volume         Depth
  Runoff Quantity Continuity     hectare-m            mm
  **************************     ---------       -------
  Total Precipitation ......         1.170         2.561
  Evaporation Loss .........         0.000         0.000
  Infiltration Loss ........         0.280         0.612
  Surface Runoff ...........         0.224         0.490
  Final Storage ............         0.666         1.459
  Continuity Error (%) .....        -0.011
  
  
  **************************        Volume        Volume
  Flow Routing Continuity        hectare-m      10^6 ltr
  **************************     ---------     ---------
  Dry Weather Inflow .......         0.616         6.165
  Wet Weather Inflow .......         0.224         2.236
  Groundwater Inflow .......         0.000         0.000
  RDII Inflow ..............         0.000         0.000
  External Inflow ..........         0.102         1.024
  External Outflow .........         0.737         7.370
  Flooding Loss ............         0.000         0.000
  Evaporation Loss .........         0.000         0.000
  Exfiltration Loss ........         0.000         0.000
  Initial Stored Volume ....         0.076         0.761
  Final Stored Volume ......         0.281         2.809
  Continuity Error (%) .....         0.052
  
  
  *************************
  Highest Continuity Errors
  *************************
  Node YS02001774 (55.71%)
  Node HS02004842 (55.41%)
  Node YS02001884 (45.98%)
  Node HS02004901 (20.64%)
  Node YSB1171 (20.61%)
  
  
  ***************************
  Time-Step Critical Elements
  ***************************
  Link WS02006280WS02006229 (50.27%)
  Link 3 (31.66%)
  Link WS02006238WS02006235 (3.56%)
  
  
  ********************************
  Highest Flow Instability Indexes
  ********************************
  Link YS02001754YS02001757 (10)
  Link YS02001649YS02001757 (9)
  Link YS02001652YS02001649 (9)
  Link YS02001767YS02001765 (9)
  Link YS02001762YS02001759 (8)
  
  
  *************************
  Routing Time Step Summary
  *************************
  Minimum Time Step           :     0.65 sec
  Average Time Step           :     3.15 sec
  Maximum Time Step           :     5.00 sec
  Percent in Steady State     :    -0.00
  Average Iterations per Step :     2.04
  Percent Not Converging      :     0.15
  
  
  ***************************
  Subcatchment Runoff Summary
  ***************************
  
  ------------------------------------------------------------------------------------------------------------------------------
                            Total      Total      Total      Total     Imperv       Perv      Total       Total     Peak  Runoff
                           Precip      Runon       Evap      Infil     Runoff     Runoff     Runoff      Runoff   Runoff   Coeff
  Subcatchment                 mm         mm         mm         mm         mm         mm         mm    10^6 ltr      LPS
  ------------------------------------------------------------------------------------------------------------------------------
  sub0                       2.56       0.00       0.00       0.18       1.12       0.00       1.12        0.00     0.22   0.436
  sub1                       2.56       0.00       0.00       0.28       1.03       0.00       1.03        0.01     1.21   0.403
  sub2                       2.56       0.00       0.00       0.95       0.72       0.00       0.72        0.01     1.08   0.280
  sub3                       2.56       0.00       0.00       0.95       0.69       0.00       0.69        0.02     2.23   0.270
  sub4                       2.56       0.00       0.00       0.28       0.94       0.00       0.94        0.02     2.51   0.365
  sub5                       2.56       0.00       0.00       0.18       1.08       0.00       1.08        0.01     2.15   0.421
  sub7                       2.56       0.00       0.00       0.23       1.08       0.00       1.08        0.00     0.74   0.421
  sub8                       2.56       0.00       0.00       0.23       1.07       0.00       1.07        0.01     1.32   0.418
  sub9                       2.56       0.00       0.00       0.23       1.07       0.00       1.07        0.01     0.98   0.417
  sub10                      2.56       0.00       0.00       0.20       1.07       0.00       1.07        0.01     2.14   0.418
  sub11                      2.56       0.00       0.00       0.20       1.08       0.00       1.08        0.01     2.47   0.423
  sub12                      2.56       0.00       0.00       0.33       1.04       0.00       1.04        0.01     2.04   0.406
  sub14                      2.56       0.00       0.00       0.23       1.07       0.00       1.07        0.01     1.92   0.416
  sub15                      2.56       0.00       0.00       0.77       0.82       0.00       0.82        0.01     2.61   0.319
  sub16                      2.56       0.00       0.00       0.85       0.80       0.00       0.80        0.01     1.81   0.312
  sub17                      2.56       0.00       0.00       0.82       0.81       0.00       0.81        0.01     1.47   0.316
  sub22                      2.56       0.00       0.00       1.10       0.67       0.00       0.67        0.04     8.45   0.263
  sub23                      2.56       0.00       0.00       0.95       0.75       0.00       0.75        0.04     7.17   0.291
  sub60                      2.56       0.00       0.00       0.31       0.51       0.00       0.51        0.16    11.68   0.201
  sub61                      2.56       0.00       0.00       0.44       0.59       0.00       0.59        0.18    15.27   0.231
  sub62                      2.56       0.00       0.00       0.20       0.62       0.00       0.62        0.19    15.45   0.243
  sub63                      2.56       0.00       0.00       0.74       0.54       0.00       0.54        0.16    14.42   0.212
  sub64                      2.56       0.00       0.00       0.38       0.49       0.00       0.49        0.15    11.05   0.191
  sub65                      2.56       0.00       0.00       0.33       0.49       0.00       0.49        0.15    11.18   0.192
  sub66                      2.56       0.00       0.00       0.74       0.44       0.00       0.44        0.13    10.28   0.170
  sub67                      2.56       0.00       0.00       0.20       0.73       0.00       0.73        0.23    20.37   0.286
  sub68                      2.56       0.00       0.00       0.36       0.64       0.00       0.64        0.20    17.02   0.251
  sub69                      2.56       0.00       0.00       0.38       0.75       0.00       0.75        0.17    17.26   0.292
  sub70                      2.56       0.76       0.00       1.13       0.74       0.00       0.74        0.17    11.05   0.222
  sub71                      2.56       0.00       0.00       0.20       0.58       0.00       0.58        0.14    10.62   0.226
  sub72                      2.56       0.00       0.00       0.18       0.35       0.00       0.35        0.07     4.62   0.138
  sub73                      2.56       0.72       0.00       1.12       0.67       0.00       0.67        0.16     9.63   0.203
  sub74                      2.56       0.00       0.00       1.92       0.23       0.00       0.23        0.09     9.69   0.090
  
  
  ******************
  Node Depth Summary
  ******************
  
  ---------------------------------------------------------------------------------
                                 Average  Maximum  Maximum  Time of Max    Reported
                                   Depth    Depth      HGL   Occurrence   Max Depth
  Node                 Type       Meters   Meters   Meters  days hr:min      Meters
  ---------------------------------------------------------------------------------
  WS02001211           JUNCTION     0.62     0.69     5.53     0  02:39        0.69
  WS02001212           JUNCTION     0.35     0.40     5.46     0  02:39        0.40
  WS02001213           JUNCTION     0.52     0.60     5.36     0  03:49        0.60
  WS02003069           JUNCTION     0.28     0.35     4.93     0  03:51        0.35
  WS02003072           JUNCTION     0.35     0.42     4.79     0  03:51        0.42
  WS02003073           JUNCTION     0.20     0.25     4.31     0  03:52        0.25
  WS02003060           JUNCTION     0.26     0.31     5.25     0  03:50        0.31
  WS02003066           JUNCTION     0.10     0.16     5.71     0  03:22        0.16
  WS02003059           JUNCTION     0.58     0.65     5.34     0  03:50        0.65
  WS02003067           JUNCTION     0.29     0.43     5.75     0  03:22        0.43
  WS02004401           JUNCTION     0.35     0.48     6.48     0  03:16        0.48
  WS02004402           JUNCTION     0.38     0.52     6.48     0  03:17        0.52
  WS02004403           JUNCTION     0.41     0.54     6.47     0  03:17        0.54
  WS02004404           JUNCTION     0.48     0.62     6.47     0  03:17        0.62
  WS02004406           JUNCTION     0.50     0.64     6.47     0  03:18        0.64
  WS02004409           JUNCTION     0.15     0.27     6.04     0  03:20        0.27
  WS02004410           JUNCTION     0.18     0.30     6.02     0  03:21        0.30
  WS02004411           JUNCTION     0.21     0.33     6.01     0  03:21        0.33
  WS02004412           JUNCTION     0.23     0.36     6.00     0  03:22        0.36
  WS02004413           JUNCTION     0.37     0.53     6.00     0  03:22        0.53
  WS02004405           JUNCTION     0.48     0.62     6.47     0  03:17        0.62
  WS02006109           JUNCTION     0.40     0.55     7.16     0  03:10        0.54
  WS02006110           JUNCTION     0.43     0.57     7.15     0  03:10        0.57
  WS02006111           JUNCTION     0.08     0.14     6.85     0  03:11        0.14
  WS02006112           JUNCTION     0.48     0.61     6.49     0  03:15        0.61
  WS02006113           JUNCTION     0.11     0.21     7.10     0  03:11        0.21
  WS02006115           JUNCTION     0.23     0.35     6.49     0  03:16        0.35
  WS02006116           JUNCTION     0.32     0.44     6.48     0  03:16        0.44
  WS02006230           JUNCTION     0.29     0.44     7.18     0  03:11        0.43
  WS02006231           JUNCTION     0.11     0.30     7.42     0  03:09        0.30
  WS02006232           JUNCTION     0.19     0.41     7.45     0  03:08        0.41
  WS02006234           JUNCTION     0.11     0.31     7.46     0  03:08        0.30
  WS02006235           JUNCTION     0.14     0.34     7.50     0  03:08        0.33
  WS02006238           JUNCTION     0.16     0.36     7.51     0  03:08        0.35
  WS02006240           JUNCTION     0.07     0.22     7.51     0  03:08        0.22
  WS02006242           JUNCTION     0.09     0.26     7.53     0  03:09        0.25
  WS02006243           JUNCTION     0.03     0.11     7.53     0  03:10        0.10
  WS02006245           JUNCTION     0.04     0.07     7.56     0  02:45        0.07
  WS02006247           JUNCTION     0.04     0.08     7.58     0  02:44        0.08
  WS02006248           JUNCTION     0.03     0.06     7.64     0  02:43        0.06
  WS02006249           JUNCTION     0.05     0.09     7.69     0  02:42        0.09
  WS02006239           JUNCTION     0.10     0.31     7.52     0  03:08        0.30
  WS02006251           JUNCTION     0.03     0.07     7.74     0  02:40        0.07
  WS02006252           JUNCTION     0.00     0.00     8.24     0  00:00        0.00
  WS02006253           JUNCTION     0.06     0.11     7.76     0  02:39        0.11
  WS02006256           JUNCTION     0.51     1.15     8.08     0  03:02        1.11
  WS02004138           JUNCTION     0.14     0.17     7.42     0  06:18        0.17
  WS02004407           JUNCTION     0.07     0.13     6.44     0  03:18        0.13
  WS02006228           JUNCTION     0.37     0.52     7.17     0  03:10        0.52
  WS02006229           JUNCTION     0.33     0.48     7.17     0  03:10        0.48
  WS02006280           JUNCTION     0.04     0.07     8.34     0  02:41        0.07
  WS02006284           JUNCTION     0.32     0.37     8.77     0  02:41        0.37
  WS02006287           JUNCTION     0.05     0.10     9.05     0  02:41        0.10
  WSF200               JUNCTION     0.06     0.12     5.35     0  03:22        0.12
  HS02004901           JUNCTION     0.09     0.13     9.96     0  02:41        0.13
  HS02004881           JUNCTION     0.00     0.01     9.04     0  02:38        0.01
  HS02004876           JUNCTION     0.02     0.05     9.08     0  02:38        0.05
  HS02004870           JUNCTION     0.01     0.01     9.30     0  02:36        0.01
  HS02004862           JUNCTION     0.01     0.01     9.40     0  02:37        0.01
  HS02004856           JUNCTION     0.06     0.08     9.51     0  02:36        0.08
  HS02004852           JUNCTION     0.00     0.01     9.52     0  02:38        0.01
  HS02004848           JUNCTION     0.00     0.01     9.61     0  02:32        0.01
  HS02004842           JUNCTION     0.32     0.34     9.61     0  02:31        0.34
  HS02004837           JUNCTION     0.02     0.03     9.61     0  02:32        0.03
  HS02004830           JUNCTION     0.03     0.04     9.51     0  02:32        0.04
  HS02004824           JUNCTION     0.01     0.02     9.42     0  02:35        0.02
  HS02004817           JUNCTION     0.40     0.44     9.29     0  02:40        0.44
  HS02004807           JUNCTION     0.09     0.12     9.29     0  02:40        0.12
  HS02004802           JUNCTION     0.13     0.16     9.29     0  02:40        0.16
  HS02004799           JUNCTION     0.08     0.12     9.33     0  02:39        0.12
  HS02004792           JUNCTION     0.01     0.03     9.56     0  02:38        0.03
  HS02004788           JUNCTION     0.01     0.02     9.92     0  02:41        0.02
  HS02004785           JUNCTION     0.02     0.05     9.95     0  02:42        0.05
  HS02004777           JUNCTION     0.11     0.16     9.95     0  02:41        0.16
  HS02004770           JUNCTION     0.08     0.12     9.96     0  02:41        0.12
  HS02004480           JUNCTION     0.04     0.09     9.33     0  02:40        0.09
  HS02004479           JUNCTION     0.08     0.12     9.33     0  02:40        0.12
  HS02004478           JUNCTION     0.04     0.06     9.29     0  02:40        0.06
  YS02001745           JUNCTION     0.03     0.05     7.57     0  03:01        0.05
  YS02001748           JUNCTION     0.06     0.16     7.24     0  07:47        0.16
  YS02001751           JUNCTION     0.18     0.36     7.24     0  07:50        0.36
  YS02001754           JUNCTION     0.39     0.63     7.24     0  07:49        0.63
  YS02001762           JUNCTION     0.56     0.83     7.23     0  07:48        0.83
  YS02001765           JUNCTION     0.51     0.79     7.24     0  07:48        0.78
  YS02001767           JUNCTION     0.48     0.75     7.24     0  07:49        0.75
  YS02001770           JUNCTION     0.48     0.74     7.23     0  07:49        0.74
  YS02001774           JUNCTION     0.54     0.81     7.23     0  07:49        0.81
  YS02001779           JUNCTION     0.32     0.55     7.24     0  07:50        0.55
  YS02001882           JUNCTION     0.14     0.21     6.92     0  03:03        0.21
  YS02001884           JUNCTION     0.23     0.30     6.92     0  03:04        0.30
  YS02001759           JUNCTION     0.59     0.87     7.24     0  07:50        0.87
  YS02001887           JUNCTION     0.30     0.38     6.92     0  03:04        0.38
  YS02001890           JUNCTION     0.33     0.41     6.92     0  03:03        0.41
  YS02001898           JUNCTION     0.12     0.17     6.91     0  03:04        0.17
  YS02001901           JUNCTION     0.22     0.30     6.91     0  03:05        0.30
  YS02001904           JUNCTION     0.20     0.28     6.91     0  03:05        0.28
  YS02001907           JUNCTION     0.52     0.62     6.91     0  03:05        0.62
  YS02001910           JUNCTION     0.31     0.40     6.91     0  03:05        0.40
  YS02001915           JUNCTION     0.14     0.19     6.91     0  03:05        0.19
  YS02001918           JUNCTION     0.04     0.05     7.11     0  03:07        0.05
  YS02001619           JUNCTION     0.15     0.31     7.23     0  07:48        0.31
  YS02001629           JUNCTION     0.43     0.69     7.23     0  07:50        0.69
  YS02001641           JUNCTION     0.53     0.80     7.23     0  07:50        0.80
  YS02001644           JUNCTION     0.53     0.80     7.23     0  07:50        0.80
  YS02001652           JUNCTION     0.39     0.64     7.24     0  07:48        0.64
  YS02001655           JUNCTION     0.20     0.39     7.24     0  07:49        0.39
  YS02001920           JUNCTION     0.12     0.13     7.13     0  03:06        0.13
  YS02001923           JUNCTION     0.03     0.03     7.29     0  03:04        0.03
  YS02001926           JUNCTION     0.07     0.09     7.53     0  03:03        0.09
  YS02001929           JUNCTION     0.03     0.03     7.73     0  03:01        0.03
  YS02001658           JUNCTION     0.04     0.09     7.24     0  07:49        0.09
  YS02001661           JUNCTION     0.10     0.12     7.53     0  03:01        0.12
  YS02001664           JUNCTION     0.03     0.05     7.97     0  03:01        0.05
  YS02001622           JUNCTION     0.16     0.33     7.23     0  07:50        0.33
  YS02001633           JUNCTION     0.52     0.78     7.23     0  07:50        0.78
  YS02001649           JUNCTION     0.56     0.84     7.23     0  07:50        0.84
  YS02001757           JUNCTION     0.69     0.97     7.24     0  07:50        0.97
  YS02001895           JUNCTION     0.11     0.17     6.92     0  03:03        0.17
  YS02001625           JUNCTION     0.41     0.63     7.24     0  07:49        0.63
  YS02163301           JUNCTION     0.46     0.72     7.23     0  07:50        0.72
  YS02163601           JUNCTION     0.57     0.84     7.23     0  07:49        0.84
  YS02164001           JUNCTION     0.51     0.78     7.23     0  07:49        0.78
  YS02001647           JUNCTION     0.38     0.62     7.23     0  07:49        0.62
  YSB1154              JUNCTION     0.21     0.27     9.33     0  02:39        0.27
  YSB6556              JUNCTION     0.11     0.16     9.33     0  02:40        0.16
  YSB1174              JUNCTION     0.16     0.22     9.33     0  02:40        0.22
  YSB1171              JUNCTION     0.36     0.42     9.33     0  02:40        0.42
  YS02006553           JUNCTION     0.52     0.63     6.91     0  03:04        0.63
  YS02006561           JUNCTION     0.06     0.09     6.75     0  03:05        0.09
  YS02006556           JUNCTION     0.50     0.60     6.91     0  03:05        0.60
  YS02006558           JUNCTION     0.54     0.64     6.91     0  03:05        0.64
  YS02001783           JUNCTION     0.10     0.15     6.29     0  03:05        0.15
  YS02001784           JUNCTION     0.13     0.19     6.26     0  03:05        0.19
  YS02001786           JUNCTION     0.11     0.16     6.19     0  03:06        0.16
  YS02001788           JUNCTION     0.07     0.11     6.09     0  03:06        0.11
  YS02001790           JUNCTION     0.09     0.14     5.78     0  03:05        0.14
  YS02001791           JUNCTION     0.06     0.09     5.56     0  03:05        0.09
  YS02001793           JUNCTION     0.12     0.54     5.38     0  03:02        0.53
  WS02004139           JUNCTION     0.56     0.63     5.54     0  02:39        0.63
  WSC                  OUTFALL      0.20     0.25     0.92     0  03:52        0.24
  3                    OUTFALL      0.03     0.13     6.13     0  04:52        0.11
  4                    OUTFALL      0.00     0.00     7.00     0  00:00        0.00
  5                    OUTFALL      0.00     0.00     5.00     0  00:00        0.00
  JK-storage           STORAGE      3.76     4.56     5.36     0  03:02        4.56
  CC-storage           STORAGE      0.09     0.23     7.23     0  07:50        0.23
  XR-storage           STORAGE      6.62     7.00     5.00     0  06:18        7.00
  
  
  *******************
  Node Inflow Summary
  *******************
  
  -------------------------------------------------------------------------------------------------
                                  Maximum  Maximum                  Lateral       Total        Flow
                                  Lateral    Total  Time of Max      Inflow      Inflow     Balance
                                   Inflow   Inflow   Occurrence      Volume      Volume       Error
  Node                 Type           LPS      LPS  days hr:min    10^6 ltr    10^6 ltr     Percent
  -------------------------------------------------------------------------------------------------
  WS02001211           JUNCTION      7.35   294.50     0  06:19       0.207        5.84       0.549
  WS02001212           JUNCTION      0.00   292.67     0  02:39           0         5.8       0.271
  WS02001213           JUNCTION      0.00   292.66     0  02:39           0        5.79       0.306
  WS02003069           JUNCTION      0.32   379.66     0  03:50     0.00902        7.06       0.214
  WS02003072           JUNCTION      0.00   379.02     0  03:51           0        7.05       0.296
  WS02003073           JUNCTION      1.82   379.86     0  03:51      0.0514        7.08       0.306
  WS02003060           JUNCTION     16.53   379.65     0  03:50       0.466        7.07       0.209
  WS02003066           JUNCTION      0.00    92.97     0  03:22           0       0.865       0.163
  WS02003059           JUNCTION      0.00   292.77     0  03:45           0        5.78       0.546
  WS02003067           JUNCTION      0.00    92.98     0  03:22           0       0.869       0.502
  WS02004401           JUNCTION      0.00   117.60     0  03:12           0       0.975       1.095
  WS02004402           JUNCTION      0.00   112.88     0  03:12           0       0.964       1.125
  WS02004403           JUNCTION      0.00   109.05     0  03:13           0       0.953       1.099
  WS02004404           JUNCTION      0.16   105.85     0  03:13     0.00457       0.948       0.918
  WS02004406           JUNCTION      0.00   101.16     0  03:13           0       0.927       2.303
  WS02004409           JUNCTION      0.00    98.25     0  03:18           0       0.905       0.338
  WS02004410           JUNCTION      0.00    96.69     0  03:15           0       0.902       0.534
  WS02004411           JUNCTION      0.00    95.66     0  03:20           0       0.897       0.673
  WS02004412           JUNCTION      0.00    94.58     0  03:20           0       0.891       0.898
  WS02004413           JUNCTION      0.00    93.54     0  03:21           0       0.883       1.589
  WS02004405           JUNCTION      0.04   103.79     0  03:13     0.00107        0.94       1.399
  WS02006109           JUNCTION      1.23   137.41     0  03:10      0.0347        1.02       1.076
  WS02006110           JUNCTION      0.00   132.27     0  03:10           0        1.01       0.931
  WS02006111           JUNCTION      0.00   127.04     0  03:11           0       0.999       0.087
  WS02006112           JUNCTION      1.47   126.44     0  03:11     0.00693           1       1.485
  WS02006113           JUNCTION      0.00   128.45     0  03:10           0           1       0.175
  WS02006115           JUNCTION      0.00   124.41     0  03:11           0        0.99       0.755
  WS02006116           JUNCTION      0.00   121.82     0  03:12           0       0.983       0.810
  WS02006230           JUNCTION     10.28   114.59     0  03:09        0.29       0.624       0.786
  WS02006231           JUNCTION      0.00   106.88     0  03:08           0       0.334       0.126
  WS02006232           JUNCTION      0.00   109.76     0  03:07           0       0.349       4.384
  WS02006234           JUNCTION      0.00   118.79     0  03:05           0       0.344      -1.576
  WS02006235           JUNCTION      0.00   166.33     0  03:03           0       0.471       3.500
  WS02006238           JUNCTION      0.00    95.74     0  03:35           0       0.207       1.496
  WS02006240           JUNCTION      0.00    42.32     0  03:04           0        0.11       2.788
  WS02006242           JUNCTION      0.00    35.68     0  03:06           0      0.0692       2.295
  WS02006243           JUNCTION      0.00    11.04     0  03:07           0      0.0439       0.444
  WS02006245           JUNCTION      0.00     6.26     0  02:44           0        0.04       0.679
  WS02006247           JUNCTION      0.00     6.27     0  02:43           0      0.0401       0.274
  WS02006248           JUNCTION      0.00     6.27     0  02:42           0      0.0402       0.091
  WS02006249           JUNCTION      0.00     6.29     0  02:40           0      0.0405       0.805
  WS02006239           JUNCTION      0.00    70.07     0  07:48           0       0.159       3.067
  WS02006251           JUNCTION      0.08     6.30     0  02:38     0.00217      0.0405       0.181
  WS02006252           JUNCTION      0.00     0.00     0  00:00           0           0       0.000 ltr
  WS02006253           JUNCTION      0.22     6.23     0  02:38    0.000904      0.0385       0.404
  WS02006256           JUNCTION      0.00   300.00     0  03:02           0       0.665       1.275
  WS02004138           JUNCTION      0.00   285.00     0  02:19           0        5.65       0.057
  WS02004407           JUNCTION      0.00    98.75     0  03:14           0       0.906       0.160
  WS02006228           JUNCTION      0.00   141.12     0  03:09           0       0.993       0.694
  WS02006229           JUNCTION      0.00   144.77     0  03:09           0           1       0.871
  WS02006280           JUNCTION      0.00    41.12     0  02:41           0       0.382       0.021
  WS02006284           JUNCTION      0.10    41.12     0  02:41      0.0027       0.384       0.308
  WS02006287           JUNCTION      0.00    41.03     0  02:40           0       0.382       0.181
  WSF200               JUNCTION      0.00    92.95     0  03:22           0       0.863       0.100
  HS02004901           JUNCTION      1.81     1.81     0  02:25     0.00835     0.00849      26.014
  HS02004881           JUNCTION      0.74     6.05     0  02:37     0.00363      0.0377       0.149
  HS02004876           JUNCTION      1.21     5.42     0  02:35     0.00685      0.0346       1.460
  HS02004870           JUNCTION      1.32     4.24     0  02:34     0.00684      0.0278       0.367
  HS02004862           JUNCTION      1.28     2.99     0  02:35      0.0123      0.0211       0.761
  HS02004856           JUNCTION      0.98     1.73     0  02:34     0.00514      0.0102      16.252
  HS02004852           JUNCTION      0.00     0.80     0  02:36           0     0.00515       0.783
  HS02004848           JUNCTION      2.23     2.23     0  02:34      0.0156      0.0156       0.237
  HS02004842           JUNCTION      0.00     4.49     0  00:03           0      0.0235     124.289
  HS02004837           JUNCTION      8.49     9.91     0  02:30       0.191       0.201       0.393
  HS02004830           JUNCTION      0.15    10.06     0  02:32     0.00423       0.192       0.645
  HS02004824           JUNCTION      2.56    12.61     0  02:35      0.0209       0.211       0.254
  HS02004817           JUNCTION      0.60    13.21     0  02:35      0.0169       0.228       7.884
  HS02004807           JUNCTION      2.47    15.48     0  02:35      0.0126       0.224       1.921
  HS02004802           JUNCTION      0.00    15.42     0  02:38           0        0.22       1.878
  HS02004799           JUNCTION      1.92    21.92     0  02:37      0.0102       0.159       1.405
  HS02004792           JUNCTION      8.73    20.11     0  02:37      0.0504        0.15       0.281
  HS02004788           JUNCTION      4.28    12.11     0  02:40      0.0612         0.1       0.385
  HS02004785           JUNCTION      0.15     8.09     0  02:38     0.00423      0.0415       1.137
  HS02004777           JUNCTION      0.03     8.17     0  02:35    0.000846      0.0416      14.146
  HS02004770           JUNCTION      7.17     8.63     0  02:29      0.0355      0.0423       7.903
  HS02004480           JUNCTION      0.00    25.64     0  02:39           0       0.178       0.322
  HS02004479           JUNCTION      0.00     3.78     0  02:40           0      0.0312       2.381
  HS02004478           JUNCTION      0.00    41.03     0  02:40           0       0.383       0.195
  YS02001745           JUNCTION     11.68    11.68     0  03:01       0.156       0.156       0.125
  YS02001748           JUNCTION      0.04    11.72     0  03:01     0.00127       0.157       0.998
  YS02001751           JUNCTION      0.01    11.77     0  03:01     0.00031       0.156       5.124
  YS02001754           JUNCTION      0.26    20.50     0  05:35     0.00733       0.166      10.049
  YS02001762           JUNCTION      0.00    19.32     0  03:22           0       0.146      14.477
  YS02001765           JUNCTION      0.00    21.17     0  03:21           0       0.146      15.920
  YS02001767           JUNCTION      0.54    19.60     0  03:21      0.0151       0.161      21.245
  YS02001770           JUNCTION     15.60    18.16     0  03:19       0.195       0.198      13.837
  YS02001774           JUNCTION      0.00     9.47     0  03:04           0      0.0373     125.810
  YS02001779           JUNCTION      0.01     4.82     0  03:15    0.000141      0.0133     220.909
  YS02001882           JUNCTION      0.00     1.14     0  02:08           0      0.0018     145.691
  YS02001884           JUNCTION      0.00     3.49     0  02:11           0     0.00767      85.101
  YS02001759           JUNCTION     15.31    35.05     0  03:22       0.184       0.299       7.502
  YS02001887           JUNCTION     20.82    20.82     0  03:01       0.238       0.241       2.421
  YS02001890           JUNCTION      0.00    20.58     0  03:00           0       0.228       2.854
  YS02001898           JUNCTION      0.00    20.39     0  03:04           0        0.22       0.591
  YS02001901           JUNCTION      0.00    20.45     0  03:03           0        0.22       1.909
  YS02001904           JUNCTION      0.00    20.37     0  03:04           0        0.22       1.789
  YS02001907           JUNCTION      0.00    38.30     0  03:05           0       0.497       4.145
  YS02001910           JUNCTION      0.00    18.11     0  03:01           0       0.287       3.016
  YS02001915           JUNCTION     10.64    18.09     0  03:01       0.137        0.29       1.009
  YS02001918           JUNCTION      0.00     7.55     0  03:06           0       0.153       0.339
  YS02001619           JUNCTION     10.28    10.28     0  03:01       0.134       0.134       2.406
  YS02001629           JUNCTION      0.00    14.26     0  03:18           0       0.101      14.336
  YS02001641           JUNCTION      0.00    32.81     0  03:17           0       0.187      10.395
  YS02001644           JUNCTION     11.09    42.20     0  03:17        0.15       0.313       7.428
  YS02001652           JUNCTION      0.00    16.05     0  03:11           0       0.158      10.431
  YS02001655           JUNCTION      0.15    14.57     0  03:01     0.00434       0.167       5.434
  YS02001920           JUNCTION      2.87     7.55     0  03:04      0.0809       0.154       0.853
  YS02001923           JUNCTION      0.04     4.68     0  03:03     0.00106      0.0735       0.165
  YS02001926           JUNCTION      0.05     4.67     0  03:01     0.00147      0.0734       1.275
  YS02001929           JUNCTION      4.62     4.62     0  03:01       0.072       0.072       0.148
  YS02001658           JUNCTION      0.00    14.42     0  03:01           0       0.164       0.713
  YS02001661           JUNCTION      0.00    14.42     0  03:01           0       0.164       0.352
  YS02001664           JUNCTION     14.42    14.42     0  03:01       0.164       0.164       0.059
  YS02001622           JUNCTION      0.00    10.71     0  03:16           0       0.131       8.101
  YS02001633           JUNCTION     11.38    28.73     0  03:17       0.157       0.232      12.636
  YS02001649           JUNCTION      0.00    54.14     0  03:18           0       0.405       8.576
  YS02001757           JUNCTION      0.00    83.10     0  03:17           0       0.768      12.959
  YS02001895           JUNCTION      0.00    20.44     0  03:01           0       0.222       0.980
  YS02001625           JUNCTION      0.00    12.44     0  03:16           0       0.121      23.642
  YS02163301           JUNCTION      0.00    16.81     0  03:17           0      0.0941      23.872
  YS02163601           JUNCTION      0.11    30.30     0  03:18      0.0031       0.206      14.447
  YS02164001           JUNCTION      0.00    32.63     0  03:17           0       0.189       9.482
  YS02001647           JUNCTION      0.00    40.57     0  03:17           0       0.282       7.277
  YSB1154              JUNCTION      2.15     2.15     0  02:28      0.0122      0.0137      11.768
  YSB6556              JUNCTION      0.00     2.20     0  01:37           0      0.0148       9.125
  YSB1174              JUNCTION      2.04     2.04     0  02:25     0.00908      0.0102      14.429
  YSB1171              JUNCTION      0.00     3.85     0  02:35           0      0.0306      25.964
  YS02006553           JUNCTION      0.00    38.37     0  03:07           0       0.484       2.738
  YS02006561           JUNCTION      0.00    55.68     0  03:05           0       0.665       0.049
  YS02006556           JUNCTION      0.00    38.42     0  03:07           0       0.485       1.930
  YS02006558           JUNCTION     17.90    55.70     0  03:04       0.222       0.687       0.573
  YS02001783           JUNCTION      0.00    55.67     0  03:05           0       0.665       0.114
  YS02001784           JUNCTION      1.06    56.72     0  03:05      0.0299       0.694       0.194
  YS02001786           JUNCTION      0.06    56.76     0  03:06     0.00159       0.694       0.198
  YS02001788           JUNCTION      0.07    56.83     0  03:06       0.002       0.695       0.104
  YS02001790           JUNCTION      0.15    56.98     0  03:06     0.00437       0.698       0.134
  YS02001791           JUNCTION      0.00    57.12     0  03:05           0       0.697       0.064
  YS02001793           JUNCTION      0.00   111.74     0  03:36           0       0.706       0.095
  WS02004139           JUNCTION      0.32   286.20     0  06:18     0.00905        5.66       0.536
  WSC                  OUTFALL       0.00   378.75     0  03:52           0        7.06       0.000
  3                    OUTFALL       0.00   239.44     0  04:52           0       0.313       0.000
  4                    OUTFALL       0.00     0.00     0  00:00           0           0       0.000 ltr
  5                    OUTFALL       0.00     0.00     0  00:00           0           0       0.000 ltr
  JK-storage           STORAGE       0.00   292.94     0  03:36           0       0.856       0.710
  CC-storage           STORAGE       0.00    74.45     0  03:20           0       0.666       1.985
  XR-storage           STORAGE     219.17   219.17     0  03:01        5.89        6.49       0.000
  
  
  **********************
  Node Surcharge Summary
  **********************
  
  No nodes were surcharged.
  
  
  *********************
  Node Flooding Summary
  *********************
  
  No nodes were flooded.
  
  
  **********************
  Storage Volume Summary
  **********************
  
  --------------------------------------------------------------------------------------------------
                         Average     Avg  Evap Exfil       Maximum     Max    Time of Max    Maximum
                          Volume    Pcnt  Pcnt  Pcnt        Volume    Pcnt     Occurrence    Outflow
  Storage Unit           1000 m3    Full  Loss  Loss       1000 m3    Full    days hr:min        LPS
  --------------------------------------------------------------------------------------------------
  JK-storage               0.189      65     0     0         0.229      79       0  03:02     360.86
  CC-storage               0.239       2     0     0         0.653       4       0  07:50       0.00
  XR-storage               0.794      86     0     0         0.840      91       0  06:18     285.00
  
  
  ***********************
  Outfall Loading Summary
  ***********************
  
  -----------------------------------------------------------
                         Flow       Avg       Max       Total
                         Freq      Flow      Flow      Volume
  Outfall Node           Pcnt       LPS       LPS    10^6 ltr
  -----------------------------------------------------------
  WSC                   99.99    262.58    378.75       7.057
  3                     31.70    147.08    239.44       0.313
  4                      0.00      0.00      0.00       0.000
  5                      0.00      0.00      0.00       0.000
  -----------------------------------------------------------
  System                32.92    409.66    560.93       7.370
  
  
  ********************
  Link Flow Summary
  ********************
  
  -----------------------------------------------------------------------------
                                 Maximum  Time of Max   Maximum    Max/    Max/
                                  |Flow|   Occurrence   |Veloc|    Full    Full
  Link                 Type          LPS  days hr:min     m/sec    Flow   Depth
  -----------------------------------------------------------------------------
  WS02003066WSF200     CONDUIT     92.95     0  03:22      1.74    0.02    0.09
  WS02006287WS02006284 CONDUIT     41.03     0  02:41      0.89    0.02    0.11
  WS02006284WS02006280 CONDUIT     41.12     0  02:41      1.15    0.02    0.09
  WS02006280WS02006229 CONDUIT     41.12     0  02:41      1.84    0.01    0.07
  WS02006229WS02006228 CONDUIT    141.12     0  03:09      0.45    0.47    0.60
  WS02006256WS02006235 CONDUIT    166.33     0  03:03      2.56    1.76    1.00
  WS02006253WS02006251 CONDUIT      6.23     0  02:38      0.24    0.02    0.12
  WS02006252WS02006251 CONDUIT      0.00     0  00:00      0.00    0.00    0.00
  WS02006251WS02006249 CONDUIT      6.29     0  02:40      0.27    0.02    0.11
  WS02006249WS02006248 CONDUIT      6.27     0  02:42      0.32    0.03    0.10
  WS02006248WS02006247 CONDUIT      6.27     0  02:43      0.34    0.01    0.09
  WS02006247WS02006245 CONDUIT      6.26     0  02:44      0.29    0.05    0.10
  WS02006245WS02006243 CONDUIT      6.32     0  03:07      0.40    0.02    0.11
  WS02006243WS02006242 CONDUIT     16.90     0  03:11      0.33    0.04    0.23
  WS02006242WS02006240 CONDUIT     30.26     0  03:06      0.50    0.12    0.33
  WS02006240WS02006239 CONDUIT     43.63     0  03:10      0.57    0.14    0.34
  WS02006239WS02006238 CONDUIT     70.07     0  07:48      0.66    0.22    0.47
  WS02006238WS02006235 CONDUIT     95.74     0  03:35      1.12    0.21    0.50
  WS02006235WS02006234 CONDUIT    118.79     0  03:05      0.92    1.25    0.44
  WS02006234WS02006232 CONDUIT    109.76     0  03:07      0.88    0.22    0.51
  WS02006232WS02006231 CONDUIT    106.88     0  03:08      0.61    0.22    0.50
  WS02006231WS02006230 CONDUIT    104.32     0  03:09      0.86    1.58    0.35
  WS02006230WS02006229 CONDUIT    111.87     0  03:09      0.52    2.49    0.61
  WS02006228WS02006109 CONDUIT    136.18     0  03:10      0.40    0.59    0.65
  WS02006116WS02004401 CONDUIT    117.60     0  03:12      0.35    0.16    0.46
  WS02006115WS02006116 CONDUIT    121.82     0  03:12      0.49    0.16    0.36
  WS02006113WS02006111 CONDUIT    127.04     0  03:11      1.55    0.15    0.22
  WS02006112WS02006115 CONDUIT    124.41     0  03:11      0.34    0.07    0.47
  WS02006111WS02006112 CONDUIT    125.86     0  03:11      0.66    0.06    0.45
  WS02006110WS02006113 CONDUIT    128.45     0  03:10      0.53    0.12    0.49
  WS02006109WS02006110 CONDUIT    132.27     0  03:10      0.40    0.25    0.63
  WS02004411WS02004412 CONDUIT     94.58     0  03:20      0.57    0.13    0.35
  WS02004401WS02004402 CONDUIT    112.88     0  03:12      0.35    0.14    0.50
  WS02004413WS02003067 CONDUIT     92.98     0  03:22      0.40    0.04    0.33
  WS02004412WS02004413 CONDUIT     93.54     0  03:21      0.55    0.06    0.45
  WS02004410WS02004411 CONDUIT     95.66     0  03:20      0.49    0.13    0.32
  WS02004409WS02004410 CONDUIT     96.69     0  03:15      0.56    0.13    0.29
  WS02004407WS02004409 CONDUIT     98.25     0  03:18      0.92    0.03    0.20
  WS02004406WS02004407 CONDUIT     98.75     0  03:14      0.35    0.04    0.38
  WS02004405WS02004406 CONDUIT    101.16     0  03:13      0.22    0.20    0.63
  WS02004404WS02004405 CONDUIT    103.75     0  03:13      0.29    1.02    0.62
  WS02004403WS02004404 CONDUIT    105.69     0  03:13      0.36    0.08    0.58
  WS02004402WS02004403 CONDUIT    109.05     0  03:13      0.40    0.16    0.53
  WS02004139WS02001211 CONDUIT    287.15     0  06:19      0.54    0.36    0.51
  WS02004138WS02004139 CONDUIT    285.88     0  06:18      2.39    0.06    0.37
  WS02003067WS02003066 CONDUIT     92.97     0  03:22      0.43    0.03    0.24
  WS02001213WS02003059 CONDUIT    292.77     0  03:45      0.59    0.48    0.62
  WS02001212WS02001213 CONDUIT    292.66     0  02:39      1.19    0.45    0.35
  WS02001211WS02001212 CONDUIT    292.67     0  02:39      0.67    0.22    0.54
  WS02003072WS02003073 CONDUIT    378.04     0  03:51      1.26    0.82    0.31
  WS02003069WS02003072 CONDUIT    379.02     0  03:51      1.22    0.18    0.32
  WS02003060WS02003069 CONDUIT    379.34     0  03:50      1.50    0.15    0.28
  WS02003059WS02003060 CONDUIT    292.94     0  03:45      0.82    0.19    0.48
  HS02004901HS02004770 CONDUIT      1.59     0  02:34      0.02    0.01    0.18
  HS02004876HS02004881 CONDUIT      5.38     0  02:38      0.20    0.06    0.04
  HS02004870HS02004876 CONDUIT      4.24     0  02:36      0.14    0.00    0.04
  HS02004842HS02004848 CONDUIT      1.45     0  02:39      0.01    0.00    0.25
  HS02004837HS02004842 CONDUIT      4.49     0  00:03      0.42    0.00    0.26
  HS02004830HS02004837 CONDUIT      9.91     0  02:32      0.30    0.01    0.05
  HS02004824HS02004830 CONDUIT     10.06     0  02:33      0.35    0.01    0.04
  HS02004817HS02004824 CONDUIT     12.61     0  02:35      0.17    0.01    0.33
  HS02004770HS02004777 CONDUIT      8.14     0  02:35      0.06    0.01    0.20
  HS02004799HS02004480 CONDUIT     21.88     0  02:38      0.22    0.03    0.14
  HS02004792HS02004799 CONDUIT     20.10     0  02:38      0.26    0.01    0.11
  HS02004788HS02004792 CONDUIT     12.10     0  02:41      0.44    0.01    0.04
  HS02004785HS02004788 CONDUIT      8.04     0  02:42      0.21    0.06    0.05
  HS02004777HS02004785 CONDUIT      7.94     0  02:38      0.08    0.01    0.15
  HS02004480HS02004478 CONDUIT     25.62     0  02:40      0.44    0.11    0.08
  HS02004479HS02004480 CONDUIT      3.80     0  02:41      0.15    0.00    0.15
  HS02004862HS02004870 CONDUIT      2.98     0  02:37      0.22    0.00    0.02
  HS02004848HS02004852 CONDUIT      0.80     0  02:36      0.12    0.00    0.01
  HS02004856HS02004862 CONDUIT      1.72     0  02:36      0.14    0.00    0.02
  HS02004852HS02004856 CONDUIT      0.79     0  02:38      0.02    0.00    0.06
  HS02004802HS02004478 CONDUIT     15.41     0  02:40      0.14    0.01    0.16
  HS02004478WS02006287 CONDUIT     41.03     0  02:40      0.62    0.01    0.07
  HS02004817HS02004807 CONDUIT     13.17     0  02:40      0.05    0.01    0.40
  HS02004807HS02004802 CONDUIT     15.42     0  02:38      0.19    0.03    0.19
  YS02001759YS02001757 CONDUIT     34.49     0  03:22      0.12    0.02    0.92
  YS02001762YS02001759 CONDUIT     21.63     0  03:22      0.17    0.02    0.85
  YS02001765YS02001762 CONDUIT     19.32     0  03:22      0.21    0.02    0.81
  YS02001770YS02001767 CONDUIT     19.07     0  03:21      0.24    0.08    0.74
  YS02001774YS02001770 CONDUIT      9.47     0  03:04      0.13    0.01    0.76
  YS02001779YS02001774 CONDUIT      4.81     0  03:15      0.03    0.00    0.68
  YS02001649YS02001757 CONDUIT     51.57     0  03:17      0.09    0.03    0.91
  YS02001767YS02001765 CONDUIT     21.17     0  03:21      0.26    0.03    0.77
  YS02006561YS02001783 CONDUIT     55.67     0  03:05      1.14    0.03    0.15
  YS02001783YS02001784 CONDUIT     55.66     0  03:05      0.71    0.08    0.21
  YS02001784YS02001785 CONDUIT     56.71     0  03:06      0.70    0.13    0.22
  YS02001788YS02001790 CONDUIT     56.82     0  03:06      1.15    0.04    0.15
  YS02001790YS02001791 CONDUIT     57.12     0  03:05      1.34    0.06    0.14
  YS02001791YS02001793 CONDUIT     57.85     0  03:23      2.59    0.02    0.39
  YS02001910YS02001907 CONDUIT     18.03     0  03:07      0.49    0.01    0.51
  YS02001786YS02001788 CONDUIT     56.76     0  03:06      1.00    0.11    0.17
  YS02001915YS02001910 CONDUIT     18.11     0  03:01      0.44    0.01    0.30
  YS02001918YS02001915 CONDUIT      7.54     0  03:07      0.44    0.00    0.12
  YS02001923YS02001920 CONDUIT      4.68     0  03:04      0.16    0.00    0.08
  YS02001926YS02001923 CONDUIT      4.65     0  03:03      0.24    0.01    0.06
  YS02001929YS02001926 CONDUIT      4.62     0  03:01      0.23    0.00    0.06
  YS02001920YS02001918 CONDUIT      7.55     0  03:06      0.23    0.01    0.09
  YS02001629YS02163301 CONDUIT     16.81     0  03:17      0.06    0.02    0.70
  YS02001619YS02001622 CONDUIT     10.71     0  03:16      0.39    0.02    0.32
  YS02001622YS02001625 CONDUIT     12.44     0  03:16      0.15    0.01    0.48
  YS02001625YS02001629 CONDUIT     14.26     0  03:18      0.09    0.01    0.47
  YS02163301YS02001633 CONDUIT     18.10     0  03:17      0.05    0.02    0.75
  YS02163601YS02164001 CONDUIT     32.63     0  03:17      0.07    0.03    0.81
  YS02164001YS02001641 CONDUIT     32.81     0  03:17      0.07    0.04    0.79
  YS02001641YS02001644 CONDUIT     31.86     0  03:17      0.08    0.10    0.80
  YS02001647YS02001649 CONDUIT     40.03     0  03:16      0.11    0.02    0.73
  YS02006553YS02006556 CONDUIT     38.42     0  03:07      0.18    0.03    0.59
  YS02006556YS02006558 CONDUIT     38.43     0  03:07      0.08    0.03    0.62
  YSB6556YSB1171       CONDUIT      2.20     0  01:37      0.03    0.00    0.41
  YS02001907YS02006553 CONDUIT     38.37     0  03:07      0.06    0.05    0.68
  YS02006558YS02006561 CONDUIT     55.68     0  03:05      1.42    0.12    0.20
  YS02001633YS02163601 CONDUIT     30.19     0  03:18      0.06    0.03    0.80
  YS02001644YS02001647 CONDUIT     40.57     0  03:17      0.10    0.02    0.71
  YS02001745YS02001748 CONDUIT     11.67     0  03:01      0.83    0.00    0.05
  YS02001748YS02001751 CONDUIT     11.76     0  03:01      0.70    0.01    0.26
  YS02001751YS02001754 CONDUIT     15.75     0  03:21      0.67    0.01    0.47
  YS02001754YS02001757 CONDUIT     21.26     0  04:36      0.33    0.01    0.80
  YS02001882YS02001884 CONDUIT      1.14     0  02:08      0.06    0.00    0.22
  YS02001884YS02001887 CONDUIT      3.49     0  02:11      0.04    0.00    0.32
  YS02001890YS02001895 CONDUIT     20.44     0  03:01      0.11    0.01    0.29
  YS02001895YS02001898 CONDUIT     20.39     0  03:04      0.31    0.04    0.16
  YS02001898YS02001901 CONDUIT     20.45     0  03:03      0.14    0.01    0.24
  YS02001901YS02001904 CONDUIT     20.37     0  03:04      0.18    0.03    0.29
  YS02001904YS02001907 CONDUIT     20.39     0  03:05      0.06    0.01    0.45
  YS02001887YS02001890 CONDUIT     20.58     0  03:00      0.10    0.04    0.37
  YS02001652YS02001649 CONDUIT     16.52     0  03:12      0.22    0.01    0.74
  YS02001655YS02001652 CONDUIT     16.05     0  03:11      0.71    0.01    0.50
  YS02001658YS02001655 CONDUIT     14.42     0  03:01      0.79    0.01    0.24
  YS02001661YS02001658 CONDUIT     14.42     0  03:01      0.85    0.01    0.06
  YS02001664YS02001661 CONDUIT     14.42     0  03:01      0.44    0.00    0.09
  YSB1154YSB6556       CONDUIT      2.12     0  02:31      0.19    0.00    0.30
  YSB1174YSB1171       CONDUIT      2.01     0  02:24      0.02    0.00    0.42
  YSB1171HS02004479    CONDUIT      3.78     0  02:40      0.54    0.00    0.31
  HS02004881HS02006253 CONDUIT      6.05     0  02:38      0.80    0.00    0.01
  YS02001793JiankangQianchi CONDUIT    292.94     0  03:36      0.65    0.02    0.77
  YS02001757CaochengTiaoxuchi CONDUIT     74.45     0  03:20      0.26    0.03    0.60
  WSF200WS02003060     CONDUIT     92.94     0  03:22      0.75    0.02    0.18
  1                    CONDUIT    378.75     0  03:52      2.53    0.13    0.25
  2                    CONDUIT      0.00     0  00:00      0.00    0.00    0.00
  3                    CONDUIT    239.44     0  04:52      8.26    0.38    0.45
  4                    CONDUIT      0.00     0  00:00      0.00    0.00    0.00
  CC-Pump-1            PUMP         0.00     0  00:00              0.00
  CC-Pump-2            PUMP         0.00     0  00:00              0.00
  JK-Pump-1            PUMP       300.00     0  03:02              1.00
  JK-Pump-2            PUMP         0.00     0  00:00              0.00
  XR-Pump-1            PUMP        95.00     0  00:00              1.00
  XR-Pump-2            PUMP        95.00     0  00:25              1.00
  XR-Pump-3            PUMP        95.00     0  02:19              1.00
  XR-Pump-4            PUMP         0.00     0  00:00              0.00
  
  
  ***************************
  Flow Classification Summary
  ***************************
  
  -------------------------------------------------------------------------------------
                      Adjusted    ---------- Fraction of Time in Flow Class ---------- 
                       /Actual         Up    Down  Sub   Sup   Up    Down  Norm  Inlet 
  Conduit               Length    Dry  Dry   Dry   Crit  Crit  Crit  Crit  Ltd   Ctrl  
  -------------------------------------------------------------------------------------
  WS02003066WSF200        1.00   0.24  0.00  0.00  0.00  0.76  0.00  0.00  0.65  0.00
  WS02006287WS02006284    1.00   0.07  0.05  0.00  0.75  0.13  0.00  0.00  0.81  0.00
  WS02006284WS02006280    1.00   0.09  0.00  0.00  0.00  0.00  0.00  0.91  0.00  0.00
  WS02006280WS02006229    1.00   0.09  0.00  0.00  0.00  0.00  0.00  0.91  0.00  0.00
  WS02006229WS02006228    1.00   0.00  0.00  0.00  0.99  0.00  0.00  0.01  0.00  0.00
  WS02006256WS02006235    1.00   0.14  0.00  0.00  0.77  0.09  0.00  0.00  0.06  0.00
  WS02006253WS02006251    1.00   0.03  0.04  0.00  0.92  0.00  0.01  0.00  0.00  0.00
  WS02006252WS02006251    1.00   1.00  0.00  0.00  0.00  0.00  0.00  0.00  0.00  0.00
  WS02006251WS02006249    1.00   0.00  0.00  0.00  1.00  0.00  0.00  0.00  0.98  0.00
  WS02006249WS02006248    1.00   0.00  0.01  0.00  0.00  0.00  0.99  0.00  0.00  0.00
  WS02006248WS02006247    1.00   0.01  0.00  0.00  0.95  0.00  0.00  0.03  0.87  0.00
  WS02006247WS02006245    1.00   0.02  0.00  0.00  0.92  0.00  0.00  0.06  0.00  0.00
  WS02006245WS02006243    1.00   0.02  0.00  0.00  0.71  0.00  0.00  0.27  0.06  0.00
  WS02006243WS02006242    1.00   0.03  0.00  0.00  0.89  0.00  0.00  0.08  0.74  0.00
  WS02006242WS02006240    1.00   0.03  0.08  0.00  0.87  0.00  0.01  0.00  0.00  0.00
  WS02006240WS02006239    1.00   0.12  0.00  0.00  0.41  0.00  0.00  0.47  0.05  0.00
  WS02006239WS02006238    1.00   0.12  0.00  0.00  0.86  0.00  0.00  0.02  0.30  0.00
  WS02006238WS02006235    1.00   0.12  0.02  0.00  0.86  0.00  0.00  0.00  0.00  0.00
  WS02006235WS02006234    1.00   0.16  0.02  0.00  0.50  0.00  0.32  0.00  0.00  0.00
  WS02006234WS02006232    1.00   0.18  0.00  0.00  0.82  0.00  0.00  0.00  0.12  0.00
  WS02006232WS02006231    1.00   0.18  0.05  0.00  0.70  0.00  0.07  0.00  0.00  0.00
  WS02006231WS02006230    1.00   0.23  0.00  0.00  0.00  0.00  0.77  0.00  0.00  0.00
  WS02006230WS02006229    1.00   0.00  0.00  0.00  0.98  0.00  0.00  0.02  0.03  0.00
  WS02006228WS02006109    1.00   0.00  0.00  0.00  1.00  0.00  0.00  0.00  0.00  0.00
  WS02006116WS02004401    1.00   0.07  0.00  0.00  0.93  0.00  0.00  0.00  0.01  0.00
  WS02006115WS02006116    1.00   0.07  0.00  0.00  0.86  0.00  0.00  0.07  0.00  0.00
  WS02006113WS02006111    1.00   0.04  0.00  0.00  0.02  0.94  0.00  0.00  0.01  0.00
  WS02006112WS02006115    1.00   0.04  0.02  0.00  0.93  0.00  0.00  0.00  0.00  0.00
  WS02006111WS02006112    1.00   0.04  0.00  0.00  0.95  0.00  0.00  0.01  0.92  0.00
  WS02006110WS02006113    1.00   0.01  0.03  0.00  0.96  0.00  0.00  0.00  0.00  0.00
  WS02006109WS02006110    1.00   0.00  0.01  0.00  0.98  0.00  0.01  0.00  0.00  0.00
  WS02004411WS02004412    1.00   0.19  0.00  0.00  0.81  0.00  0.00  0.00  0.00  0.00
  WS02004401WS02004402    1.00   0.07  0.00  0.00  0.93  0.00  0.00  0.00  0.04  0.00
  WS02004413WS02003067    1.00   0.19  0.03  0.00  0.00  0.00  0.77  0.00  0.00  0.00
  WS02004412WS02004413    1.00   0.19  0.00  0.00  0.81  0.00  0.00  0.00  0.01  0.00
  WS02004410WS02004411    1.00   0.19  0.00  0.00  0.81  0.00  0.00  0.00  0.00  0.00
  WS02004409WS02004410    1.00   0.19  0.00  0.00  0.81  0.00  0.00  0.00  0.00  0.00
  WS02004407WS02004409    1.00   0.19  0.00  0.00  0.80  0.01  0.00  0.00  0.71  0.00
  WS02004406WS02004407    1.00   0.00  0.18  0.00  0.81  0.00  0.00  0.00  0.00  0.00
  WS02004405WS02004406    1.00   0.00  0.00  0.00  1.00  0.00  0.00  0.00  0.04  0.00
  WS02004404WS02004405    1.00   0.00  0.00  0.00  1.00  0.00  0.00  0.00  0.01  0.00
  WS02004403WS02004404    1.00   0.00  0.07  0.00  0.93  0.00  0.00  0.00  0.04  0.00
  WS02004402WS02004403    1.00   0.07  0.00  0.00  0.93  0.00  0.00  0.00  0.00  0.00
  WS02004139WS02001211    1.00   0.00  0.00  0.00  1.00  0.00  0.00  0.00  0.00  0.00
  WS02004138WS02004139    1.00   0.00  0.00  0.00  0.99  0.01  0.00  0.00  1.00  0.00
  WS02003067WS02003066    1.00   0.23  0.01  0.00  0.76  0.00  0.00  0.00  0.00  0.00
  WS02001213WS02003059    1.00   0.00  0.00  0.00  0.99  0.00  0.00  0.00  0.00  0.00
  WS02001212WS02001213    1.00   0.00  0.00  0.00  0.00  0.00  0.99  0.00  0.00  0.00
  WS02001211WS02001212    1.00   0.00  0.00  0.00  1.00  0.00  0.00  0.00  0.00  0.00
  WS02003072WS02003073    1.00   0.00  0.00  0.00  0.00  0.00  0.00  1.00  0.00  0.00
  WS02003069WS02003072    1.00   0.00  0.00  0.00  1.00  0.00  0.00  0.00  0.96  0.00
  WS02003060WS02003069    1.00   0.00  0.00  0.00  0.99  0.01  0.00  0.00  0.61  0.00
  WS02003059WS02003060    1.00   0.00  0.00  0.00  1.00  0.00  0.00  0.00  0.02  0.00
  HS02004901HS02004770    1.00   0.08  0.00  0.00  0.91  0.00  0.00  0.00  0.04  0.00
  HS02004876HS02004881    1.00   0.01  0.00  0.00  0.99  0.00  0.00  0.00  0.00  0.00
  HS02004870HS02004876    1.00   0.00  0.00  0.00  0.99  0.01  0.00  0.00  0.95  0.00
  HS02004842HS02004848    1.00   0.00  0.09  0.00  0.91  0.00  0.00  0.00  0.79  0.00
  HS02004837HS02004842    1.00   0.00  0.00  0.00  1.00  0.00  0.00  0.00  0.11  0.00
  HS02004830HS02004837    1.00   0.00  0.00  0.00  1.00  0.00  0.00  0.00  0.99  0.00
  HS02004824HS02004830    1.00   0.00  0.00  0.00  1.00  0.00  0.00  0.00  0.00  0.00
  HS02004817HS02004824    1.00   0.00  0.00  0.00  1.00  0.00  0.00  0.00  1.00  0.00
  HS02004770HS02004777    1.00   0.00  0.09  0.00  0.91  0.00  0.00  0.00  0.08  0.00
  HS02004799HS02004480    1.00   0.00  0.02  0.00  0.86  0.00  0.11  0.00  0.00  0.00
  HS02004792HS02004799    1.00   0.00  0.00  0.00  0.99  0.01  0.00  0.00  0.98  0.00
  HS02004788HS02004792    1.00   0.00  0.00  0.00  0.99  0.01  0.00  0.00  0.98  0.00
  HS02004785HS02004788    1.00   0.00  0.00  0.00  1.00  0.00  0.00  0.00  0.00  0.00
  HS02004777HS02004785    1.00   0.00  0.00  0.00  1.00  0.00  0.00  0.00  0.23  0.00
  HS02004480HS02004478    1.00   0.11  0.00  0.00  0.73  0.00  0.00  0.17  0.00  0.00
  HS02004479HS02004480    1.00   0.02  0.00  0.00  0.98  0.00  0.00  0.00  0.17  0.00
  HS02004862HS02004870    1.00   0.00  0.00  0.00  1.00  0.00  0.00  0.00  0.06  0.00
  HS02004848HS02004852    1.00   0.09  0.00  0.00  0.91  0.00  0.00  0.00  0.67  0.00
  HS02004856HS02004862    1.00   0.00  0.19  0.00  0.81  0.00  0.00  0.00  0.71  0.00
  HS02004852HS02004856    1.00   0.09  0.03  0.00  0.88  0.00  0.00  0.00  0.81  0.00
  HS02004802HS02004478    1.00   0.09  0.02  0.00  0.89  0.00  0.00  0.00  0.00  0.00
  HS02004478WS02006287    1.00   0.12  0.00  0.00  0.88  0.00  0.00  0.00  0.81  0.00
  HS02004817HS02004807    1.00   0.00  0.09  0.00  0.91  0.00  0.00  0.00  0.00  0.00
  HS02004807HS02004802    1.00   0.09  0.00  0.00  0.90  0.00  0.00  0.01  0.01  0.00
  YS02001759YS02001757    1.00   0.00  0.00  0.00  1.00  0.00  0.00  0.00  0.17  0.00
  YS02001762YS02001759    1.00   0.00  0.00  0.00  1.00  0.00  0.00  0.00  0.06  0.00
  YS02001765YS02001762    1.00   0.00  0.00  0.00  1.00  0.00  0.00  0.00  0.25  0.00
  YS02001770YS02001767    1.00   0.00  0.00  0.00  1.00  0.00  0.00  0.00  0.00  0.00
  YS02001774YS02001770    1.00   0.00  0.13  0.00  0.87  0.00  0.00  0.00  0.06  0.00
  YS02001779YS02001774    1.00   0.00  0.00  0.00  1.00  0.00  0.00  0.00  0.31  0.00
  YS02001649YS02001757    1.00   0.00  0.00  0.00  1.00  0.00  0.00  0.00  0.20  0.00
  YS02001767YS02001765    1.00   0.00  0.00  0.00  1.00  0.00  0.00  0.00  0.01  0.00
  YS02006561YS02001783    1.00   0.19  0.00  0.00  0.00  0.81  0.00  0.00  0.70  0.00
  YS02001783YS02001784    1.00   0.00  0.19  0.00  0.81  0.00  0.00  0.00  0.55  0.00
  YS02001784YS02001785    1.00   0.00  0.00  0.00  1.00  0.00  0.00  0.00  0.28  0.00
  YS02001788YS02001790    1.00   0.00  0.00  0.00  0.21  0.79  0.00  0.00  1.00  0.00
  YS02001790YS02001791    1.00   0.00  0.00  0.00  0.01  0.99  0.00  0.00  0.00  0.00
  YS02001791YS02001793    1.00   0.00  0.00  0.00  0.26  0.73  0.00  0.00  0.29  0.00
  YS02001910YS02001907    1.00   0.00  0.00  0.00  0.98  0.00  0.00  0.02  0.13  0.00
  YS02001786YS02001788    1.00   0.00  0.00  0.00  0.68  0.32  0.00  0.00  0.00  0.00
  YS02001915YS02001910    1.00   0.00  0.00  0.00  0.99  0.01  0.00  0.00  0.27  0.00
  YS02001918YS02001915    1.00   0.00  0.00  0.00  0.99  0.01  0.00  0.00  0.78  0.00
  YS02001923YS02001920    1.00   0.00  0.00  0.00  1.00  0.00  0.00  0.00  1.00  0.00
  YS02001926YS02001923    1.00   0.00  0.05  0.00  0.00  0.00  0.95  0.00  0.00  0.00
  YS02001929YS02001926    1.00   0.00  0.09  0.00  0.91  0.00  0.00  0.00  0.86  0.00
  YS02001920YS02001918    1.00   0.00  0.00  0.00  1.00  0.00  0.00  0.00  0.00  0.00
  YS02001629YS02163301    1.00   0.16  0.01  0.00  0.83  0.00  0.00  0.00  0.00  0.00
  YS02001619YS02001622    1.00   0.08  0.00  0.00  0.92  0.00  0.00  0.00  0.00  0.00
  YS02001622YS02001625    1.00   0.09  0.00  0.00  0.91  0.00  0.00  0.00  0.17  0.00
  YS02001625YS02001629    1.00   0.09  0.12  0.00  0.68  0.00  0.11  0.00  0.00  0.00
  YS02163301YS02001633    1.00   0.00  0.16  0.00  0.84  0.00  0.00  0.00  0.00  0.00
  YS02163601YS02164001    1.00   0.00  0.05  0.00  0.95  0.00  0.00  0.00  0.00  0.00
  YS02164001YS02001641    1.00   0.01  0.05  0.00  0.95  0.00  0.00  0.00  0.07  0.00
  YS02001641YS02001644    1.00   0.00  0.00  0.00  1.00  0.00  0.00  0.00  0.00  0.00
  YS02001647YS02001649    1.00   0.00  0.19  0.00  0.81  0.00  0.00  0.00  0.01  0.00
  YS02006553YS02006556    1.00   0.01  0.00  0.00  0.99  0.00  0.00  0.00  0.03  0.00
  YS02006556YS02006558    1.00   0.00  0.00  0.00  1.00  0.00  0.00  0.00  0.00  0.00
  YSB6556YSB1171          1.00   0.03  0.05  0.00  0.92  0.00  0.00  0.00  0.00  0.00
  YS02001907YS02006553    1.00   0.00  0.01  0.00  0.98  0.00  0.00  0.00  0.00  0.00
  YS02006558YS02006561    1.00   0.19  0.00  0.00  0.00  0.81  0.00  0.00  0.48  0.00
  YS02001633YS02163601    1.00   0.00  0.00  0.00  1.00  0.00  0.00  0.00  0.21  0.00
  YS02001644YS02001647    1.00   0.00  0.19  0.00  0.81  0.00  0.00  0.00  0.00  0.00
  YS02001745YS02001748    1.00   0.00  0.00  0.00  0.11  0.07  0.00  0.82  0.17  0.00
  YS02001748YS02001751    1.00   0.00  0.00  0.00  0.87  0.12  0.00  0.00  0.49  0.00
  YS02001751YS02001754    1.00   0.00  0.00  0.00  0.77  0.00  0.00  0.22  0.06  0.00
  YS02001754YS02001757    1.00   0.00  0.00  0.00  1.00  0.00  0.00  0.00  0.30  0.00
  YS02001882YS02001884    1.00   0.15  0.02  0.00  0.84  0.00  0.00  0.00  0.00  0.00
  YS02001884YS02001887    1.00   0.04  0.03  0.00  0.93  0.00  0.00  0.00  0.00  0.00
  YS02001890YS02001895    1.00   0.00  0.17  0.00  0.83  0.00  0.00  0.00  0.00  0.00
  YS02001895YS02001898    1.00   0.17  0.00  0.00  0.80  0.00  0.03  0.00  0.00  0.00
  YS02001898YS02001901    1.00   0.15  0.02  0.00  0.83  0.00  0.00  0.00  0.02  0.00
  YS02001901YS02001904    1.00   0.15  0.00  0.00  0.85  0.00  0.00  0.00  0.00  0.00
  YS02001904YS02001907    1.00   0.00  0.15  0.00  0.85  0.00  0.00  0.00  0.00  0.00
  YS02001887YS02001890    1.00   0.00  0.00  0.00  0.98  0.00  0.02  0.00  0.00  0.00
  YS02001652YS02001649    1.00   0.00  0.00  0.00  1.00  0.00  0.00  0.00  0.30  0.00
  YS02001655YS02001652    1.00   0.00  0.00  0.00  0.78  0.00  0.00  0.22  0.06  0.00
  YS02001658YS02001655    1.00   0.00  0.14  0.00  0.74  0.13  0.00  0.00  0.57  0.00
  YS02001661YS02001658    1.00   0.14  0.00  0.00  0.19  0.67  0.00  0.00  0.73  0.00
  YS02001664YS02001661    1.00   0.08  0.00  0.00  0.92  0.00  0.00  0.00  0.86  0.00
  YSB1154YSB6556          1.00   0.08  0.00  0.00  0.92  0.00  0.00  0.00  0.02  0.00
  YSB1174YSB1171          1.00   0.03  0.03  0.00  0.94  0.00  0.00  0.00  0.00  0.00
  YSB1171HS02004479       1.00   0.02  0.00  0.00  0.97  0.00  0.00  0.01  0.14  0.00
  HS02004881HS02006253    1.00   0.03  0.00  0.00  0.00  0.00  0.00  0.97  0.00  0.00
  YS02001793JiankangQianchi    1.00   0.00  0.00  0.00  1.00  0.00  0.00  0.00  0.70  0.00
  YS02001757CaochengTiaoxuchi    1.00   0.00  0.34  0.00  0.66  0.00  0.00  0.00  0.00  0.00
  WSF200WS02003060        1.00   0.00  0.24  0.00  0.76  0.00  0.00  0.00  0.66  0.00
  1                       1.00   0.00  0.00  0.00  0.00  1.00  0.00  0.00  0.14  0.00
  2                       1.00   1.00  0.00  0.00  0.00  0.00  0.00  0.00  0.00  0.00
  3                       1.00   0.68  0.00  0.00  0.00  0.32  0.00  0.00  0.00  0.00
  4                       1.00   1.00  0.00  0.00  0.00  0.00  0.00  0.00  0.00  0.00
  
  
  *************************
  Conduit Surcharge Summary
  *************************
  
  ----------------------------------------------------------------------------
                                                           Hours        Hours 
                         --------- Hours Full --------   Above Full   Capacity
  Conduit                Both Ends  Upstream  Dnstream   Normal Flow   Limited
  ----------------------------------------------------------------------------
  WS02006256WS02006235        0.30      0.31      3.44      0.59         0.01
  WS02006235WS02006234        0.01      0.01      0.01      0.38         0.01
  WS02006231WS02006230        0.01      0.01      0.01      0.36         0.01
  WS02006230WS02006229        0.01      0.01      0.01      0.95         0.01
  WS02004404WS02004405        0.01      0.01      0.01      0.02         0.01
  YS02001793JiankangQianchi        0.01      0.01      7.82      0.01         0.01
  
  
  ***************
  Pumping Summary
  ***************
  
  ---------------------------------------------------------------------------------------------------------
                                                  Min       Avg       Max     Total     Power    % Time Off
                        Percent   Number of      Flow      Flow      Flow    Volume     Usage    Pump Curve
  Pump                 Utilized   Start-Ups       LPS       LPS       LPS  10^6 ltr     Kw-hr    Low   High
  ---------------------------------------------------------------------------------------------------------
  CC-Pump-1                0.00           0      0.00      0.00      0.00     0.000      0.00    0.0    0.0
  CC-Pump-2                0.00           0      0.00      0.00      0.00     0.000      0.00    0.0    0.0
  JK-Pump-1                7.77           7      0.00    300.00    300.00     0.657      5.82    0.0    0.0
  JK-Pump-2                0.00           0      0.00      0.00      0.00     0.000      0.00    0.0    0.0
  XR-Pump-1              100.00           1      0.00     95.00     95.00     2.679     20.41    0.0    0.0
  XR-Pump-2               94.70           1      0.00     95.00     95.00     2.537     18.98    0.0    0.0
  XR-Pump-3               16.36           4      0.00     95.00     95.00     0.438      3.30    0.0    0.0
  XR-Pump-4                0.00           0      0.00      0.00      0.00     0.000      0.00    0.0    0.0
  

  Analysis begun on:  Thu Jan  6 00:48:29 2022
  Analysis ended on:  Thu Jan  6 00:48:30 2022
  Total elapsed time: 00:00:01