
  EPA STORM WATER MANAGEMENT MODEL - VERSION 5.1 (Build 5.3.0.dev0)
  --------------------------------------------------------------

  WARNING 04: minimum elevation drop used for Conduit WS02004404WS02004405
  WARNING 03: negative offset ignored for Link YS02001904YS02001907
  
  *********************************************************
  NOTE: The summary statistics displayed in this report are
  based on results found at every computational time step,  
  not just on results from each reporting time step.
  *********************************************************
  
  ****************
  Analysis Options
  ****************
  Flow Units ............... LPS
  Process Models:
    Rainfall/Runoff ........ YES
    RDII ................... NO
    Snowmelt ............... NO
    Groundwater ............ NO
    Flow Routing ........... YES
    Ponding Allowed ........ NO
    Water Quality .......... NO
  Infiltration Method ...... HORTON
  Flow Routing Method ...... DYNWAVE
  Surcharge Method ......... EXTRAN
  Starting Date ............ 08/28/2015 08:00:00
  Ending Date .............. 08/28/2015 15:50:00
  Antecedent Dry Days ...... 8.0
  Report Time Step ......... 00:01:00
  Wet Time Step ............ 00:01:00
  Dry Time Step ............ 00:01:00
  Routing Time Step ........ 5.00 sec
  Variable Time Step ....... YES
  Maximum Trials ........... 8
  Number of Threads ........ 4
  Head Tolerance ........... 0.001500 m
  
  
  **************************        Volume         Depth
  Runoff Quantity Continuity     hectare-m            mm
  **************************     ---------       -------
  Total Precipitation ......         5.493        12.027
  Evaporation Loss .........         0.000         0.000
  Infiltration Loss ........         1.412         3.091
  Surface Runoff ...........         3.074         6.729
  Final Storage ............         1.009         2.209
  Continuity Error (%) .....        -0.014
  
  
  **************************        Volume        Volume
  Flow Routing Continuity        hectare-m      10^6 ltr
  **************************     ---------     ---------
  Dry Weather Inflow .......         0.616         6.165
  Wet Weather Inflow .......         3.072        30.725
  Groundwater Inflow .......         0.000         0.000
  RDII Inflow ..............         0.000         0.000
  External Inflow ..........         0.102         1.024
  External Outflow .........         1.009        10.094
  Flooding Loss ............         2.212        22.121
  Evaporation Loss .........         0.000         0.000
  Exfiltration Loss ........         0.000         0.000
  Initial Stored Volume ....         0.076         0.761
  Final Stored Volume ......         0.646         6.455
  Continuity Error (%) .....         0.008
  
  
  *************************
  Highest Continuity Errors
  *************************
  Node HS02004842 (16.39%)
  Node YS02001884 (10.44%)
  Node YSB1171 (3.16%)
  Node HS02004817 (3.01%)
  Node HS02004901 (2.34%)
  
  
  ***************************
  Time-Step Critical Elements
  ***************************
  Link WS02006252WS02006251 (65.43%)
  Link 3 (18.26%)
  Link WS02006280WS02006229 (4.41%)
  Link WS02006238WS02006235 (2.45%)
  Link YS02006556YS02006558 (2.15%)
  
  
  ********************************
  Highest Flow Instability Indexes
  ********************************
  Link WS02006113WS02006111 (42)
  Link YS02163601YS02164001 (34)
  Link YS02163301YS02001633 (34)
  Link YS02001629YS02163301 (34)
  Link YS02001791YS02001793 (33)
  
  
  *************************
  Routing Time Step Summary
  *************************
  Minimum Time Step           :     0.50 sec
  Average Time Step           :     1.11 sec
  Maximum Time Step           :     5.00 sec
  Percent in Steady State     :    -0.00
  Average Iterations per Step :     4.42
  Percent Not Converging      :    20.70
  
  
  ***************************
  Subcatchment Runoff Summary
  ***************************
  
  ------------------------------------------------------------------------------------------------------------------------------
                            Total      Total      Total      Total     Imperv       Perv      Total       Total     Peak  Runoff
                           Precip      Runon       Evap      Infil     Runoff     Runoff     Runoff      Runoff   Runoff   Coeff
  Subcatchment                 mm         mm         mm         mm         mm         mm         mm    10^6 ltr      LPS
  ------------------------------------------------------------------------------------------------------------------------------
  sub0                      12.03       0.00       0.00       0.84       9.92       0.00       9.92        0.01     2.03   0.825
  sub1                      12.03       0.00       0.00       1.32       9.45       0.00       9.45        0.06    13.40   0.786
  sub2                      12.03       0.00       0.00       4.45       6.67       0.00       6.67        0.06    12.40   0.555
  sub3                      12.03       0.00       0.00       4.45       6.63       0.00       6.63        0.15    27.80   0.552
  sub4                      12.03       0.00       0.00       1.32       9.30       0.00       9.30        0.19    33.44   0.773
  sub5                      12.03       0.00       0.00       0.84       9.87       0.00       9.87        0.11    23.84   0.821
  sub7                      12.03       0.00       0.00       1.08       9.69       0.00       9.69        0.03     7.67   0.806
  sub8                      12.03       0.00       0.00       1.08       9.68       0.00       9.68        0.06    14.05   0.805
  sub9                      12.03       0.00       0.00       1.08       9.68       0.00       9.68        0.05    10.50   0.805
  sub10                     12.03       0.00       0.00       0.96       9.77       0.00       9.77        0.11    23.44   0.813
  sub11                     12.03       0.00       0.00       0.96       9.79       0.00       9.79        0.11    26.14   0.814
  sub12                     12.03       0.00       0.00       1.56       9.28       0.00       9.28        0.08    19.99   0.771
  sub14                     12.03       0.00       0.00       1.08       9.68       0.00       9.68        0.09    20.64   0.805
  sub15                     12.03       0.00       0.00       3.61       7.44       0.00       7.44        0.13    28.31   0.619
  sub16                     12.03       0.00       0.00       3.97       7.14       0.00       7.14        0.07    18.12   0.594
  sub17                     12.03       0.00       0.00       3.85       7.24       0.00       7.24        0.06    14.90   0.602
  sub22                     12.03       0.00       0.00       5.17       6.07       0.00       6.07        0.38    88.71   0.504
  sub23                     12.03       0.00       0.00       4.45       6.71       0.00       6.71        0.32    74.74   0.558
  sub60                     12.03       0.00       0.00       1.44       7.74       0.00       7.74        2.35   221.95   0.644
  sub61                     12.03       0.00       0.00       2.04       7.85       0.00       7.85        2.42   262.11   0.653
  sub62                     12.03       0.00       0.00       0.96       8.54       0.00       8.54        2.63   273.68   0.710
  sub63                     12.03       0.00       0.00       3.49       6.87       0.00       6.87        2.08   239.63   0.571
  sub64                     12.03       0.00       0.00       1.80       7.43       0.00       7.43        2.26   211.47   0.618
  sub65                     12.03       0.00       0.00       1.56       7.55       0.00       7.55        2.32   215.23   0.628
  sub66                     12.03       0.00       0.00       3.49       6.37       0.00       6.37        1.95   191.04   0.530
  sub67                     12.03       0.00       0.00       0.96       9.00       0.00       9.00        2.78   332.67   0.749
  sub68                     12.03       0.00       0.00       1.68       8.26       0.00       8.26        2.54   285.76   0.687
  sub69                     12.03       0.00       0.00       1.80       8.55       0.00       8.55        2.00   265.64   0.711
  sub70                     12.03       8.73       0.00       6.95      11.44       0.11      11.55        2.64   261.84   0.556
  sub71                     12.03       0.00       0.00       0.96       8.33       0.00       8.33        1.97   195.24   0.692
  sub72                     12.03       0.00       0.00       0.84       6.67       0.00       6.67        1.36   105.11   0.555
  sub73                     12.03      11.24       0.00       7.83      12.57       0.08      12.65        2.97   255.46   0.544
  sub74                     12.03       0.00       0.00       9.02       2.55       0.00       2.55        1.02   143.98   0.212
  
  
  ******************
  Node Depth Summary
  ******************
  
  ---------------------------------------------------------------------------------
                                 Average  Maximum  Maximum  Time of Max    Reported
                                   Depth    Depth      HGL   Occurrence   Max Depth
  Node                 Type       Meters   Meters   Meters  days hr:min      Meters
  ---------------------------------------------------------------------------------
  WS02001211           JUNCTION     0.50     0.65     5.49     0  02:08        0.65
  WS02001212           JUNCTION     0.26     0.39     5.45     0  02:07        0.39
  WS02001213           JUNCTION     0.49     0.66     5.42     0  02:06        0.66
  WS02003069           JUNCTION     0.34     0.53     5.11     0  02:06        0.53
  WS02003072           JUNCTION     0.41     0.59     4.96     0  02:06        0.59
  WS02003073           JUNCTION     0.24     0.36     4.42     0  02:07        0.36
  WS02003060           JUNCTION     0.30     0.47     5.40     0  02:05        0.47
  WS02003066           JUNCTION     0.21     0.31     5.86     0  02:02        0.31
  WS02003059           JUNCTION     0.56     0.73     5.42     0  02:06        0.73
  WS02003067           JUNCTION     0.53     0.72     6.04     0  02:02        0.72
  WS02004401           JUNCTION     0.61     0.90     6.90     0  01:58        0.90
  WS02004402           JUNCTION     0.64     0.92     6.88     0  01:58        0.92
  WS02004403           JUNCTION     0.66     0.93     6.86     0  01:59        0.93
  WS02004404           JUNCTION     0.74     1.00     6.85     0  01:59        1.00
  WS02004406           JUNCTION     0.75     0.99     6.82     0  01:59        0.99
  WS02004409           JUNCTION     0.43     0.70     6.47     0  02:01        0.70
  WS02004410           JUNCTION     0.45     0.72     6.44     0  02:01        0.72
  WS02004411           JUNCTION     0.47     0.72     6.40     0  02:01        0.72
  WS02004412           JUNCTION     0.49     0.73     6.37     0  02:01        0.73
  WS02004413           JUNCTION     0.64     0.88     6.35     0  02:02        0.88
  WS02004405           JUNCTION     0.74     0.99     6.84     0  01:59        0.99
  WS02006109           JUNCTION     0.69     1.03     7.65     0  01:56        1.02
  WS02006110           JUNCTION     0.69     0.96     7.55     0  01:56        0.96
  WS02006111           JUNCTION     0.19     0.30     7.01     0  01:56        0.30
  WS02006112           JUNCTION     0.77     1.18     7.06     0  01:58        1.10
  WS02006113           JUNCTION     0.30     0.48     7.37     0  01:57        0.48
  WS02006115           JUNCTION     0.50     0.81     6.94     0  01:58        0.80
  WS02006116           JUNCTION     0.58     0.88     6.92     0  01:59        0.88
  WS02006230           JUNCTION     0.63     1.06     7.81     0  01:56        1.06
  WS02006231           JUNCTION     0.40     0.71     7.83     0  01:56        0.71
  WS02006232           JUNCTION     0.52     0.82     7.86     0  01:55        0.82
  WS02006234           JUNCTION     0.43     0.73     7.88     0  01:56        0.73
  WS02006235           JUNCTION     0.45     0.75     7.91     0  02:21        0.75
  WS02006238           JUNCTION     0.48     0.78     7.92     0  02:21        0.78
  WS02006240           JUNCTION     0.37     0.71     8.00     0  02:21        0.71
  WS02006242           JUNCTION     0.42     0.78     8.05     0  02:21        0.78
  WS02006243           JUNCTION     0.31     0.68     8.10     0  02:21        0.68
  WS02006245           JUNCTION     0.30     0.65     8.14     0  02:21        0.65
  WS02006247           JUNCTION     0.32     0.66     8.16     0  02:21        0.66
  WS02006248           JUNCTION     0.27     0.60     8.19     0  02:21        0.60
  WS02006249           JUNCTION     0.31     0.62     8.21     0  02:20        0.62
  WS02006239           JUNCTION     0.43     0.75     7.96     0  02:21        0.75
  WS02006251           JUNCTION     0.30     0.65     8.32     0  02:20        0.65
  WS02006252           JUNCTION     0.25     0.59     8.83     0  02:19        0.58
  WS02006253           JUNCTION     0.33     0.68     8.32     0  02:20        0.67
  WS02006256           JUNCTION     0.85     1.20     8.13     0  06:50        1.20
  WS02004138           JUNCTION     0.09     0.14     7.39     0  02:03        0.14
  WS02004407           JUNCTION     0.19     0.31     6.62     0  01:59        0.31
  WS02006228           JUNCTION     0.68     1.08     7.74     0  01:56        1.08
  WS02006229           JUNCTION     0.66     1.08     7.78     0  01:56        1.08
  WS02006280           JUNCTION     0.07     0.19     8.46     0  01:42        0.19
  WS02006284           JUNCTION     0.38     0.54     8.94     0  01:42        0.54
  WS02006287           JUNCTION     0.11     0.28     9.23     0  01:42        0.28
  WSF200               JUNCTION     0.19     0.32     5.55     0  02:03        0.32
  HS02004901           JUNCTION     0.13     0.28    10.10     0  01:39        0.28
  HS02004881           JUNCTION     0.01     0.03     9.06     0  01:43        0.03
  HS02004876           JUNCTION     0.05     0.12     9.15     0  01:43        0.12
  HS02004870           JUNCTION     0.02     0.06     9.35     0  01:43        0.06
  HS02004862           JUNCTION     0.02     0.07     9.45     0  01:44        0.07
  HS02004856           JUNCTION     0.08     0.12     9.55     0  01:44        0.12
  HS02004852           JUNCTION     0.01     0.04     9.56     0  01:52        0.04
  HS02004848           JUNCTION     0.01     0.04     9.64     0  01:51        0.04
  HS02004842           JUNCTION     0.34     0.37     9.64     0  01:51        0.37
  HS02004837           JUNCTION     0.03     0.06     9.64     0  01:51        0.06
  HS02004830           JUNCTION     0.04     0.08     9.55     0  01:45        0.08
  HS02004824           JUNCTION     0.03     0.06     9.46     0  01:54        0.06
  HS02004817           JUNCTION     0.45     0.59     9.43     0  01:43        0.59
  HS02004807           JUNCTION     0.13     0.26     9.43     0  01:43        0.26
  HS02004802           JUNCTION     0.17     0.30     9.42     0  01:43        0.29
  HS02004799           JUNCTION     0.13     0.33     9.54     0  01:40        0.33
  HS02004792           JUNCTION     0.04     0.14     9.66     0  01:40        0.14
  HS02004788           JUNCTION     0.03     0.10    10.00     0  01:40        0.10
  HS02004785           JUNCTION     0.05     0.17    10.07     0  01:40        0.17
  HS02004777           JUNCTION     0.15     0.30    10.10     0  01:39        0.30
  HS02004770           JUNCTION     0.12     0.27    10.10     0  01:39        0.27
  HS02004480           JUNCTION     0.09     0.27     9.51     0  01:41        0.27
  HS02004479           JUNCTION     0.13     0.30     9.51     0  01:40        0.30
  HS02004478           JUNCTION     0.07     0.18     9.41     0  01:42        0.18
  YS02001745           JUNCTION     0.72     0.88     8.40     0  02:50        0.88
  YS02001748           JUNCTION     1.12     1.98     9.05     0  02:04        1.56
  YS02001751           JUNCTION     1.30     2.07     8.95     0  02:00        1.58
  YS02001754           JUNCTION     1.55     2.08     8.69     0  02:01        1.81
  YS02001762           JUNCTION     1.75     2.03     8.43     0  03:06        2.02
  YS02001765           JUNCTION     1.70     1.98     8.43     0  03:05        1.97
  YS02001767           JUNCTION     1.67     1.94     8.43     0  03:06        1.93
  YS02001770           JUNCTION     1.66     1.91     8.41     0  02:49        1.90
  YS02001774           JUNCTION     1.73     1.98     8.40     0  03:08        1.97
  YS02001779           JUNCTION     1.48     1.68     8.37     0  02:01        1.68
  YS02001882           JUNCTION     0.54     1.38     8.09     0  02:29        1.37
  YS02001884           JUNCTION     0.63     1.48     8.09     0  02:28        1.47
  YS02001759           JUNCTION     1.78     2.07     8.43     0  02:46        2.06
  YS02001887           JUNCTION     0.71     1.56     8.10     0  02:28        1.55
  YS02001890           JUNCTION     0.74     1.58     8.09     0  02:29        1.57
  YS02001898           JUNCTION     0.51     1.34     8.08     0  02:30        1.33
  YS02001901           JUNCTION     0.63     1.46     8.07     0  02:30        1.46
  YS02001904           JUNCTION     0.61     1.43     8.06     0  02:30        1.43
  YS02001907           JUNCTION     0.93     1.78     8.06     0  02:29        1.77
  YS02001910           JUNCTION     0.72     1.56     8.07     0  02:29        1.55
  YS02001915           JUNCTION     0.53     1.36     8.07     0  02:30        1.35
  YS02001918           JUNCTION     0.28     1.00     8.07     0  02:30        1.00
  YS02001619           JUNCTION     1.27     1.61     8.54     0  02:01        1.56
  YS02001629           JUNCTION     1.62     1.85     8.40     0  02:01        1.85
  YS02001641           JUNCTION     1.72     1.97     8.40     0  02:08        1.93
  YS02001644           JUNCTION     1.72     1.92     8.35     0  02:08        1.92
  YS02001652           JUNCTION     1.57     2.16     8.76     0  02:24        1.91
  YS02001655           JUNCTION     1.33     2.20     9.05     0  02:24        1.72
  YS02001920           JUNCTION     0.38     1.05     8.06     0  02:30        1.05
  YS02001923           JUNCTION     0.21     0.80     8.06     0  02:30        0.80
  YS02001926           JUNCTION     0.25     0.62     8.07     0  02:30        0.61
  YS02001929           JUNCTION     0.12     0.37     8.07     0  02:29        0.37
  YS02001658           JUNCTION     1.06     2.30     9.44     0  02:26        1.53
  YS02001661           JUNCTION     0.83     2.46     9.86     0  02:24        1.43
  YS02001664           JUNCTION     0.37     0.57     8.50     0  02:22        0.56
  YS02001622           JUNCTION     1.29     1.62     8.52     0  02:03        1.55
  YS02001633           JUNCTION     1.71     1.98     8.44     0  02:08        1.94
  YS02001649           JUNCTION     1.76     2.05     8.44     0  02:20        2.05
  YS02001757           JUNCTION     1.88     2.18     8.44     0  02:50        2.16
  YS02001895           JUNCTION     0.50     1.34     8.08     0  02:30        1.33
  YS02001625           JUNCTION     1.57     1.78     8.38     0  02:01        1.78
  YS02163301           JUNCTION     1.65     1.90     8.42     0  02:08        1.87
  YS02163601           JUNCTION     1.76     2.04     8.43     0  02:08        1.98
  YS02164001           JUNCTION     1.70     1.96     8.42     0  02:08        1.91
  YS02001647           JUNCTION     1.55     1.81     8.42     0  02:20        1.79
  YSB1154              JUNCTION     0.26     0.45     9.51     0  01:40        0.45
  YSB6556              JUNCTION     0.16     0.34     9.51     0  01:40        0.34
  YSB1174              JUNCTION     0.22     0.40     9.51     0  01:41        0.40
  YSB1171              JUNCTION     0.42     0.61     9.51     0  01:40        0.61
  YS02006553           JUNCTION     0.94     1.77     8.05     0  02:29        1.76
  YS02006561           JUNCTION     0.32     0.93     7.59     0  02:29        0.93
  YS02006556           JUNCTION     0.90     1.71     8.03     0  02:30        1.71
  YS02006558           JUNCTION     0.94     1.75     8.02     0  02:30        1.74
  YS02001783           JUNCTION     0.62     2.21     8.35     0  01:48        1.33
  YS02001784           JUNCTION     0.65     1.76     7.83     0  01:48        1.29
  YS02001786           JUNCTION     0.63     1.69     7.72     0  01:48        1.16
  YS02001788           JUNCTION     0.61     1.73     7.70     0  01:48        1.06
  YS02001790           JUNCTION     0.83     1.96     7.60     0  01:47        1.25
  YS02001791           JUNCTION     0.92     2.21     7.68     0  06:28        1.25
  YS02001793           JUNCTION     1.43     2.29     7.12     0  01:45        1.80
  WS02004139           JUNCTION     0.44     0.59     5.50     0  02:08        0.59
  WSC                  OUTFALL      0.24     0.36     1.03     0  02:07        0.36
  3                    OUTFALL      0.04     0.20     6.20     0  06:50        0.20
  4                    OUTFALL      0.00     0.12     7.12     0  02:20        0.12
  5                    OUTFALL      0.00     0.00     5.00     0  00:00        0.00
  JK-storage           STORAGE      5.20     5.80     6.60     0  01:47        5.80
  CC-storage           STORAGE      1.12     1.39     8.39     0  03:05        1.39
  XR-storage           STORAGE      7.66     7.72     5.72     0  01:09        7.72
  
  
  *******************
  Node Inflow Summary
  *******************
  
  -------------------------------------------------------------------------------------------------
                                  Maximum  Maximum                  Lateral       Total        Flow
                                  Lateral    Total  Time of Max      Inflow      Inflow     Balance
                                   Inflow   Inflow   Occurrence      Volume      Volume       Error
  Node                 Type           LPS      LPS  days hr:min    10^6 ltr    10^6 ltr     Percent
  -------------------------------------------------------------------------------------------------
  WS02001211           JUNCTION      7.35   198.33     0  02:10       0.207        2.64       0.912
  WS02001212           JUNCTION      0.00   199.45     0  02:10           0        2.62       0.469
  WS02001213           JUNCTION      0.00   200.28     0  02:10           0        2.61       0.468
  WS02003069           JUNCTION      0.32   791.42     0  02:05     0.00902        8.91       0.117
  WS02003072           JUNCTION      0.00   791.19     0  02:06           0         8.9       0.168
  WS02003073           JUNCTION      1.82   792.91     0  02:07      0.0514        8.94       0.160
  WS02003060           JUNCTION     16.53   791.22     0  02:05       0.466        8.92       0.113
  WS02003066           JUNCTION      0.00   591.88     0  02:02           0        5.88       0.026
  WS02003059           JUNCTION      0.00   201.54     0  02:09           0         2.6       0.948
  WS02003067           JUNCTION      0.00   591.80     0  02:02           0        5.89       0.077
  WS02004401           JUNCTION      0.00   597.21     0  01:58           0           6       0.181
  WS02004402           JUNCTION      0.00   596.25     0  01:58           0        5.99       0.183
  WS02004403           JUNCTION      0.00   595.91     0  01:58           0        5.97       0.178
  WS02004404           JUNCTION      0.16   595.76     0  01:58     0.00457        5.97       0.146
  WS02004406           JUNCTION      0.00   595.61     0  01:59           0        5.95       0.361
  WS02004409           JUNCTION      0.00   595.49     0  01:59           0        5.93       0.059
  WS02004410           JUNCTION      0.00   593.43     0  01:59           0        5.92       0.089
  WS02004411           JUNCTION      0.00   592.61     0  02:01           0        5.92       0.109
  WS02004412           JUNCTION      0.00   592.01     0  02:01           0        5.91       0.142
  WS02004413           JUNCTION      0.00   591.94     0  02:01           0         5.9       0.246
  WS02004405           JUNCTION      0.04   595.81     0  01:58     0.00107        5.96       0.220
  WS02006109           JUNCTION      1.23   590.24     0  01:56      0.0347        5.99       0.117
  WS02006110           JUNCTION      0.00   590.19     0  01:56           0        5.98       0.156
  WS02006111           JUNCTION      0.00   617.30     0  01:57           0        5.97       0.012
  WS02006112           JUNCTION     14.90   609.44     0  01:56      0.0621        6.03       0.298
  WS02006113           JUNCTION      0.00   591.53     0  01:56           0        5.97       0.032
  WS02006115           JUNCTION      0.00   618.10     0  01:56           0        6.01       0.129
  WS02006116           JUNCTION      0.00   599.84     0  01:58           0           6       0.110
  WS02006230           JUNCTION     10.28   322.85     0  06:52        0.29        4.12       0.143
  WS02006231           JUNCTION      0.00   312.59     0  06:52           0        3.82      -0.102
  WS02006232           JUNCTION      0.00   312.63     0  06:52           0        3.82       0.108
  WS02006234           JUNCTION      0.00   312.74     0  06:51           0        3.81      -0.040
  WS02006235           JUNCTION      0.00   312.91     0  06:51           0        3.87       0.058
  WS02006238           JUNCTION      0.00   304.83     0  02:22           0        2.68       0.002
  WS02006240           JUNCTION      0.00   304.41     0  02:21           0        2.62       0.035
  WS02006242           JUNCTION      0.00   304.38     0  02:21           0         2.6       0.034
  WS02006243           JUNCTION      0.00   311.45     0  02:17           0        2.57      -0.365
  WS02006245           JUNCTION      0.00   316.53     0  02:17           0        2.58       0.329
  WS02006247           JUNCTION      0.00   321.41     0  02:17           0        2.58       0.014
  WS02006248           JUNCTION      0.00   325.96     0  02:17           0        2.58      -0.118
  WS02006249           JUNCTION      0.00   440.39     0  02:20           0        2.64       0.180
  WS02006239           JUNCTION      0.00   304.78     0  02:22           0        2.65      -0.184
  WS02006251           JUNCTION      0.08   442.12     0  02:20     0.00217        2.65      -0.022
  WS02006252           JUNCTION      0.00   399.98     0  02:20           0        2.28       0.007
  WS02006253           JUNCTION      2.03    76.41     0  01:43     0.00803       0.371       0.013
  WS02006256           JUNCTION      0.00   599.80     0  06:50           0        2.34       0.065
  WS02004138           JUNCTION      0.00   190.00     0  02:00           0        2.45       0.074
  WS02004407           JUNCTION      0.00   595.71     0  01:59           0        5.93       0.025
  WS02006228           JUNCTION      0.00   589.03     0  01:56           0        5.96       0.101
  WS02006229           JUNCTION      0.00   588.45     0  01:56           0        5.97       0.152
  WS02006280           JUNCTION      0.00   366.29     0  01:42           0        1.87       0.003
  WS02006284           JUNCTION      0.10   366.32     0  01:42      0.0027        1.87       0.028
  WS02006287           JUNCTION      0.00   366.24     0  01:42           0        1.87       0.038
  WSF200               JUNCTION      0.00   591.89     0  02:02           0        5.88       0.016
  HS02004901           JUNCTION     18.12    18.12     0  01:36      0.0747      0.0749       2.401
  HS02004881           JUNCTION      7.67    74.62     0  01:43      0.0326       0.352       0.065
  HS02004876           JUNCTION     13.40    67.34     0  01:43      0.0628        0.32       0.169
  HS02004870           JUNCTION     14.05    54.07     0  01:43      0.0618       0.257       0.040
  HS02004862           JUNCTION     12.60    40.56     0  01:44      0.0678       0.196       0.087
  HS02004856           JUNCTION     10.50    27.98     0  01:43      0.0465       0.129       1.130
  HS02004852           JUNCTION      0.00    17.93     0  01:51           0      0.0829       0.064
  HS02004848           JUNCTION     27.80    27.80     0  01:53       0.149       0.149       0.028
  HS02004842           JUNCTION      0.00    10.09     0  01:58           0      0.0794      19.597
  HS02004837           JUNCTION     29.79    38.22     0  01:51       0.287       0.353       0.227
  HS02004830           JUNCTION      0.15    38.36     0  01:51     0.00423       0.344       0.360
  HS02004824           JUNCTION     33.49    71.74     0  01:54       0.195       0.538       0.099
  HS02004817           JUNCTION      0.60    72.33     0  01:54      0.0169       0.554       3.102
  HS02004807           JUNCTION     26.14    95.63     0  01:52       0.114       0.651       0.671
  HS02004802           JUNCTION      0.00    95.92     0  01:53           0       0.649       0.613
  HS02004799           JUNCTION     20.64   230.91     0  01:40      0.0921        1.05       0.258
  HS02004792           JUNCTION     88.99   210.34     0  01:39       0.391       0.955       0.041
  HS02004788           JUNCTION     29.98   122.05     0  01:40       0.175       0.565       0.068
  HS02004785           JUNCTION      0.15    92.14     0  01:39     0.00423       0.391       0.125
  HS02004777           JUNCTION      0.03    92.19     0  01:38    0.000846       0.391       1.344
  HS02004770           JUNCTION     74.74    92.54     0  01:38        0.32       0.393       0.790
  HS02004480           JUNCTION      0.00   273.94     0  01:41           0        1.24       0.088
  HS02004479           JUNCTION      0.00    43.17     0  01:41           0       0.201       0.365
  HS02004478           JUNCTION      0.00   366.18     0  01:42           0        1.87       0.020
  YS02001745           JUNCTION    221.95   440.57     0  02:04        2.35        2.36       0.493
  YS02001748           JUNCTION      0.04   614.08     0  02:04     0.00127        2.35       0.965
  YS02001751           JUNCTION      0.01   357.04     0  01:57     0.00031        2.31       1.018
  YS02001754           JUNCTION      0.26   246.87     0  02:05     0.00733         2.3       1.070
  YS02001762           JUNCTION      0.00   278.69     0  02:18           0        1.82       1.172
  YS02001765           JUNCTION      0.00   277.43     0  02:18           0        1.82       1.341
  YS02001767           JUNCTION      0.54   276.46     0  02:18      0.0151        1.84       1.973
  YS02001770           JUNCTION    273.83   353.88     0  02:54        2.63        2.94       1.072
  YS02001774           JUNCTION      0.00   354.81     0  02:54           0        1.39       1.827
  YS02001779           JUNCTION      0.01   355.45     0  02:54    0.000141        1.36       1.147
  YS02001882           JUNCTION      0.00    14.45     0  02:07           0      0.0199      11.680
  YS02001884           JUNCTION      0.00    19.55     0  01:32           0      0.0553      11.654
  YS02001759           JUNCTION    262.15   540.86     0  02:18        2.42         3.9       0.585
  YS02001887           JUNCTION    333.12   337.74     0  02:10        2.79        2.82       0.285
  YS02001890           JUNCTION      0.00   337.79     0  02:10           0        2.77       0.316
  YS02001898           JUNCTION      0.00   339.61     0  02:11           0        2.76       0.095
  YS02001901           JUNCTION      0.00   337.73     0  02:10           0        2.76       0.237
  YS02001904           JUNCTION      0.00   337.11     0  02:10           0        2.76       0.212
  YS02001907           JUNCTION      0.00   620.81     0  02:34           0        6.14       0.383
  YS02001910           JUNCTION      0.00   320.07     0  03:05           0        3.39       0.339
  YS02001915           JUNCTION    195.26   315.40     0  03:03        1.97         3.4       0.163
  YS02001918           JUNCTION      0.00   133.91     0  02:53           0        1.43       0.123
  YS02001619           JUNCTION    191.04   191.04     0  02:29        1.95        1.95       0.624
  YS02001629           JUNCTION      0.00   209.99     0  01:47           0        1.78       1.613
  YS02001641           JUNCTION      0.00   404.02     0  02:17           0           4       0.522
  YS02001644           JUNCTION    211.51  1055.09     0  02:51        2.26        9.48       0.277
  YS02001652           JUNCTION      0.00   324.71     0  02:01           0        2.03       1.105
  YS02001655           JUNCTION      0.15   433.40     0  01:56     0.00434        2.06       1.221
  YS02001920           JUNCTION      2.87   133.34     0  02:51      0.0809        1.44       0.197
  YS02001923           JUNCTION      0.04   115.01     0  02:51     0.00106        1.36       0.054
  YS02001926           JUNCTION      0.05   122.73     0  02:52     0.00147        1.36       0.221
  YS02001929           JUNCTION    105.11   105.11     0  02:59        1.36        1.36       0.036
  YS02001658           JUNCTION      0.00   645.41     0  02:02           0        2.09       1.111
  YS02001661           JUNCTION      0.00   636.37     0  02:21           0        2.53      -0.156
  YS02001664           JUNCTION    239.63   373.26     0  02:20        2.08        2.52       0.274
  YS02001622           JUNCTION      0.00   191.30     0  02:29           0        1.94       1.652
  YS02001633           JUNCTION    215.43   400.44     0  02:03        2.33        4.06       0.787
  YS02001649           JUNCTION      0.00   846.71     0  02:17           0        5.81       0.638
  YS02001757           JUNCTION      0.00  1574.27     0  02:17           0        8.53       1.091
  YS02001895           JUNCTION      0.00   338.05     0  02:10           0        2.77       0.180
  YS02001625           JUNCTION      0.00   209.49     0  01:47           0        1.91       2.091
  YS02163301           JUNCTION      0.00   214.42     0  02:01           0        1.77       1.362
  YS02163601           JUNCTION      0.11   400.72     0  02:03      0.0031        4.02       0.752
  YS02164001           JUNCTION      0.00   401.63     0  02:17           0           4       0.498
  YS02001647           JUNCTION      0.00   608.35     0  02:17           0        4.95       0.564
  YSB1154              JUNCTION     23.84    23.84     0  01:41       0.112       0.113       1.298
  YSB6556              JUNCTION      0.00    24.02     0  01:41           0       0.113       1.117
  YSB1174              JUNCTION     19.99    19.99     0  01:36       0.081      0.0815       1.596
  YSB1171              JUNCTION      0.00    43.58     0  01:40           0         0.2       3.265
  YS02006553           JUNCTION      0.00   620.63     0  02:32           0        6.13       0.242
  YS02006561           JUNCTION      0.00   900.27     0  02:30           0        8.64       0.009
  YS02006556           JUNCTION      0.00   620.53     0  02:32           0        6.14       0.180
  YS02006558           JUNCTION    286.64   900.51     0  02:31        2.56        8.67       0.056
  YS02001783           JUNCTION      0.00   900.37     0  02:30           0        8.64       0.079
  YS02001784           JUNCTION      1.06   901.43     0  02:30      0.0299        8.66       0.124
  YS02001786           JUNCTION      0.06   901.47     0  02:30     0.00159        8.65       0.154
  YS02001788           JUNCTION      0.07   901.45     0  02:30       0.002        8.64       0.158
  YS02001790           JUNCTION      0.15   901.75     0  02:31     0.00437        8.63       0.193
  YS02001791           JUNCTION      0.00   901.68     0  02:31           0        8.62       0.174
  YS02001793           JUNCTION      0.00   901.95     0  02:31           0        8.61       0.201
  WS02004139           JUNCTION      0.32   190.32     0  02:03     0.00905        2.46       0.958
  WSC                  OUTFALL       0.00   792.90     0  02:07           0        8.93       0.000
  3                    OUTFALL       0.00   478.59     0  06:50           0        1.11       0.000
  4                    OUTFALL       0.00   131.71     0  02:20           0      0.0612       0.000
  5                    OUTFALL       0.00     0.00     0  00:00           0           0       0.000 ltr
  JK-storage           STORAGE       0.00   901.86     0  02:30           0        8.74       0.230
  CC-storage           STORAGE       0.00  1574.92     0  02:17           0         6.3       1.039
  XR-storage           STORAGE     560.10   560.10     0  02:30        9.63        10.2       0.001
  
  
  **********************
  Node Surcharge Summary
  **********************
  
  Surcharging occurs when water rises above the top of the highest conduit.
  ---------------------------------------------------------------------
                                               Max. Height   Min. Depth
                                   Hours       Above Crown    Below Rim
  Node                 Type      Surcharged         Meters       Meters
  ---------------------------------------------------------------------
  WS02004404           JUNCTION        0.06          0.003        2.777
  WS02006109           JUNCTION        1.04          0.210        1.610
  WS02006110           JUNCTION        0.51          0.051        1.799
  WS02006112           JUNCTION        0.74          0.177        1.503
  WS02006231           JUNCTION        0.01          0.001        1.529
  WS02006232           JUNCTION        0.70          0.123        1.357
  WS02006234           JUNCTION        0.08          0.008        1.232
  WS02006235           JUNCTION        0.27          0.037        1.253
  WS02006238           JUNCTION        0.34          0.057        1.373
  WS02006240           JUNCTION        0.01          0.001        1.389
  WS02006242           JUNCTION        0.16          0.055        0.765
  WS02006239           JUNCTION        0.08          0.014        1.276
  WS02006252           JUNCTION        0.25          0.190        0.910
  WS02006228           JUNCTION        0.99          0.255        1.945
  YS02001748           JUNCTION        5.62          0.895        0.295
  YS02001751           JUNCTION        5.81          1.068        0.132
  YS02001754           JUNCTION        5.97          1.029        0.121
  YS02001762           JUNCTION        6.15          1.029        0.121
  YS02001765           JUNCTION        6.13          0.977        0.123
  YS02001767           JUNCTION        6.13          0.936        0.094
  YS02001770           JUNCTION        6.11          0.884        0.036
  YS02001774           JUNCTION        6.14          0.976        0.074
  YS02001779           JUNCTION        5.95          0.680        0.000
  YS02001882           JUNCTION        0.95          0.377        0.453
  YS02001884           JUNCTION        1.00          0.418        0.452
  YS02001759           JUNCTION        6.15          1.069        0.141
  YS02001887           JUNCTION        1.12          0.510        0.440
  YS02001890           JUNCTION        1.16          0.533        0.227
  YS02001898           JUNCTION        0.86          0.311        0.429
  YS02001901           JUNCTION        1.07          0.463        0.407
  YS02001904           JUNCTION        1.04          0.433        0.417
  YS02001907           JUNCTION        1.68          0.766        0.184
  YS02001910           JUNCTION        1.22          0.564        0.536
  YS02001915           JUNCTION        0.92          0.355        0.645
  YS02001619           JUNCTION        5.82          0.610        0.000
  YS02001629           JUNCTION        5.83          0.470        0.000
  YS02001641           JUNCTION        6.13          0.965        0.135
  YS02001644           JUNCTION        6.13          0.920        0.000
  YS02001652           JUNCTION        6.05          1.130        0.000
  YS02001655           JUNCTION        5.84          1.200        0.000
  YS02001920           JUNCTION        0.28          0.054        1.086
  YS02001658           JUNCTION        5.67          1.300        0.000
  YS02001661           JUNCTION        0.16          1.390        0.000
  YS02001622           JUNCTION        5.86          0.620        0.000
  YS02001633           JUNCTION        6.12          0.962        0.098
  YS02001649           JUNCTION        6.14          1.050        0.000
  YS02001757           JUNCTION        6.19          1.176        0.034
  YS02001895           JUNCTION        0.89          0.337        0.413
  YS02001625           JUNCTION        6.09          0.780        0.000
  YS02163301           JUNCTION        6.11          0.903        0.127
  YS02163601           JUNCTION        6.15          1.035        0.045
  YS02164001           JUNCTION        6.12          0.964        0.136
  YS02001647           JUNCTION        6.08          0.807        0.093
  YS02006553           JUNCTION        1.78          0.768        0.422
  YS02006561           JUNCTION        0.62          0.130        1.020
  YS02006556           JUNCTION        1.46          0.675        0.675
  YS02006558           JUNCTION        1.43          0.654        0.746
  YS02001783           JUNCTION        1.64          1.406        0.194
  YS02001784           JUNCTION        1.68          0.965        0.525
  YS02001786           JUNCTION        1.65          0.890        0.540
  YS02001788           JUNCTION        1.63          0.926        0.554
  YS02001790           JUNCTION        4.67          1.157        0.000
  YS02001791           JUNCTION        4.89          1.407        0.513
  YS02001793           JUNCTION        5.28          1.287        1.313
  
  
  *********************
  Node Flooding Summary
  *********************
  
  Flooding refers to all water that overflows a node, whether it ponds or not.
  --------------------------------------------------------------------------
                                                             Total   Maximum
                                 Maximum   Time of Max       Flood    Ponded
                        Hours       Rate    Occurrence      Volume     Depth
  Node                 Flooded       LPS   days hr:min    10^6 ltr    Meters
  --------------------------------------------------------------------------
  YS02001779              2.73    355.36      0  02:54       1.341     0.000
  YS02001619              0.01     19.64      0  02:04       0.000     0.000
  YS02001629              0.01     32.86      0  02:05       0.000     0.000
  YS02001644              5.50   1055.02      0  02:51       7.741     0.000
  YS02001652              0.01     21.67      0  02:29       0.000     0.000
  YS02001655              0.01     22.47      0  02:24       0.000     0.000
  YS02001658              0.01     13.05      0  02:27       0.000     0.000
  YS02001661              0.01    176.69      0  02:27       0.000     0.000
  YS02001622              0.01     30.32      0  02:03       0.000     0.000
  YS02001649              0.06     55.91      0  02:27       0.003     0.000
  YS02001625              0.88     49.09      0  02:30       0.103     0.000
  YS02001790              0.01    227.70      0  01:47       0.000     0.000
  JK-storage              4.15    901.80      0  02:31       6.080     0.000
  XR-storage              6.67    549.18      0  02:20       6.852     0.000
  
  
  **********************
  Storage Volume Summary
  **********************
  
  --------------------------------------------------------------------------------------------------
                         Average     Avg  Evap Exfil       Maximum     Max    Time of Max    Maximum
                          Volume    Pcnt  Pcnt  Pcnt        Volume    Pcnt     Occurrence    Outflow
  Storage Unit           1000 m3    Full  Loss  Loss       1000 m3    Full    days hr:min        LPS
  --------------------------------------------------------------------------------------------------
  JK-storage               0.261      90     0     0         0.291     100       0  01:47     599.80
  CC-storage               3.117      20     0     0         3.869      25       0  03:05     399.98
  XR-storage               0.919      99     0     0         0.926     100       0  01:09     190.00
  
  
  ***********************
  Outfall Loading Summary
  ***********************
  
  -----------------------------------------------------------
                         Flow       Avg       Max       Total
                         Freq      Flow      Flow      Volume
  Outfall Node           Pcnt       LPS       LPS    10^6 ltr
  -----------------------------------------------------------
  WSC                  100.00    367.98    792.90       8.926
  3                     46.10    135.89    478.59       1.107
  4                      6.70     49.19    131.71       0.061
  5                      0.00      0.00      0.00       0.000
  -----------------------------------------------------------
  System                38.20    553.05    875.69      10.094
  
  
  ********************
  Link Flow Summary
  ********************
  
  -----------------------------------------------------------------------------
                                 Maximum  Time of Max   Maximum    Max/    Max/
                                  |Flow|   Occurrence   |Veloc|    Full    Full
  Link                 Type          LPS  days hr:min     m/sec    Flow   Depth
  -----------------------------------------------------------------------------
  WS02003066WSF200     CONDUIT    591.89     0  02:02      2.85    0.10    0.24
  WS02006287WS02006284 CONDUIT    366.23     0  01:42      1.96    0.17    0.29
  WS02006284WS02006280 CONDUIT    366.29     0  01:42      2.20    0.15    0.26
  WS02006280WS02006229 CONDUIT    366.30     0  01:43      3.55    0.08    0.19
  WS02006229WS02006228 CONDUIT    589.03     0  01:56      1.17    1.95    1.00
  WS02006256WS02006235 CONDUIT    149.95     0  00:35      2.14    1.59    1.00
  WS02006253WS02006251 CONDUIT     80.05     0  01:54      0.60    0.24    0.94
  WS02006252WS02006251 CONDUIT    399.84     0  02:20      3.18    1.47    1.00
  WS02006251WS02006249 CONDUIT    440.39     0  02:20      1.20    1.27    0.90
  WS02006249WS02006248 CONDUIT    325.96     0  02:17      1.07    1.79    0.85
  WS02006248WS02006247 CONDUIT    321.41     0  02:17      1.04    0.70    0.90
  WS02006247WS02006245 CONDUIT    316.53     0  02:17      0.99    2.51    0.93
  WS02006245WS02006243 CONDUIT    311.45     0  02:17      1.06    0.92    0.94
  WS02006243WS02006242 CONDUIT    304.38     0  02:21      0.91    0.65    0.99
  WS02006242WS02006240 CONDUIT    304.41     0  02:21      0.81    1.21    1.00
  WS02006240WS02006239 CONDUIT    304.78     0  02:22      0.90    0.96    1.00
  WS02006239WS02006238 CONDUIT    304.83     0  02:22      0.79    0.98    1.00
  WS02006238WS02006235 CONDUIT    304.83     0  02:22      0.79    0.68    1.00
  WS02006235WS02006234 CONDUIT    312.74     0  06:51      0.96    3.30    1.00
  WS02006234WS02006232 CONDUIT    312.63     0  06:52      0.89    0.63    1.00
  WS02006232WS02006231 CONDUIT    312.59     0  06:52      0.94    0.66    1.00
  WS02006231WS02006230 CONDUIT    312.57     0  06:52      1.30    4.74    0.99
  WS02006230WS02006229 CONDUIT    322.81     0  06:52      0.84    7.18    1.00
  WS02006228WS02006109 CONDUIT    589.01     0  01:56      1.17    2.57    1.00
  WS02006116WS02004401 CONDUIT    597.21     0  01:58      0.81    0.82    0.89
  WS02006115WS02006116 CONDUIT    599.84     0  01:58      0.94    0.77    0.81
  WS02006113WS02006111 CONDUIT    617.30     0  01:57      2.55    0.74    0.49
  WS02006112WS02006115 CONDUIT    618.10     0  01:56      0.84    0.36    0.90
  WS02006111WS02006112 CONDUIT    597.44     0  01:56      1.64    0.28    0.68
  WS02006110WS02006113 CONDUIT    591.53     0  01:56      1.37    0.54    0.80
  WS02006109WS02006110 CONDUIT    590.19     0  01:56      1.17    1.13    1.00
  WS02004411WS02004412 CONDUIT    592.01     0  02:01      0.97    0.84    0.72
  WS02004401WS02004402 CONDUIT    596.25     0  01:58      0.79    0.72    0.91
  WS02004413WS02003067 CONDUIT    591.80     0  02:02      1.17    0.25    0.61
  WS02004412WS02004413 CONDUIT    591.94     0  02:01      0.87    0.40    0.80
  WS02004410WS02004411 CONDUIT    592.61     0  02:01      0.98    0.81    0.72
  WS02004409WS02004410 CONDUIT    593.43     0  01:59      1.00    0.77    0.71
  WS02004407WS02004409 CONDUIT    595.49     0  01:59      1.50    0.21    0.51
  WS02004406WS02004407 CONDUIT    595.71     0  01:59      1.10    0.27    0.65
  WS02004405WS02004406 CONDUIT    595.61     0  01:59      0.76    1.17    0.99
  WS02004404WS02004405 CONDUIT    595.77     0  01:58      0.91    5.84    1.00
  WS02004403WS02004404 CONDUIT    595.60     0  01:58      0.84    0.43    0.97
  WS02004402WS02004403 CONDUIT    595.91     0  01:58      0.86    0.86    0.93
  WS02004139WS02001211 CONDUIT    190.99     0  02:10      0.53    0.24    0.47
  WS02004138WS02004139 CONDUIT    190.00     0  02:03      2.39    0.04    0.34
  WS02003067WS02003066 CONDUIT    591.88     0  02:02      1.27    0.19    0.43
  WS02001213WS02003059 CONDUIT    201.54     0  02:09      0.45    0.33    0.69
  WS02001212WS02001213 CONDUIT    200.28     0  02:10      1.00    0.31    0.37
  WS02001211WS02001212 CONDUIT    199.45     0  02:10      0.52    0.15    0.52
  WS02003072WS02003073 CONDUIT    791.09     0  02:07      1.62    1.71    0.45
  WS02003069WS02003072 CONDUIT    791.19     0  02:06      1.53    0.38    0.47
  WS02003060WS02003069 CONDUIT    791.10     0  02:05      1.79    0.31    0.41
  WS02003059WS02003060 CONDUIT    203.03     0  02:09      0.64    0.13    0.60
  HS02004901HS02004770 CONDUIT     17.82     0  01:38      0.06    0.07    0.40
  HS02004876HS02004881 CONDUIT     67.33     0  01:43      0.89    0.72    0.11
  HS02004870HS02004876 CONDUIT     54.06     0  01:43      0.61    0.04    0.13
  HS02004842HS02004848 CONDUIT     10.09     0  01:58      0.05    0.01    0.30
  HS02004837HS02004842 CONDUIT     10.33     0  02:00      0.42    0.01    0.31
  HS02004830HS02004837 CONDUIT     38.21     0  01:51      0.54    0.04    0.10
  HS02004824HS02004830 CONDUIT     38.37     0  01:52      0.57    0.05    0.10
  HS02004817HS02004824 CONDUIT     71.73     0  01:54      0.22    0.03    0.46
  HS02004770HS02004777 CONDUIT     92.16     0  01:38      0.32    0.17    0.41
  HS02004799HS02004480 CONDUIT    230.86     0  01:40      0.78    0.29    0.42
  HS02004792HS02004799 CONDUIT    210.30     0  01:40      0.89    0.13    0.34
  HS02004788HS02004792 CONDUIT    122.01     0  01:40      1.02    0.08    0.17
  HS02004785HS02004788 CONDUIT     92.10     0  01:40      0.67    0.69    0.20
  HS02004777HS02004785 CONDUIT     91.99     0  01:39      0.39    0.11    0.34
  HS02004480HS02004478 CONDUIT    273.64     0  01:41      1.21    1.15    0.32
  HS02004479HS02004480 CONDUIT     43.47     0  01:42      0.30    0.04    0.41
  HS02004862HS02004870 CONDUIT     40.54     0  01:45      0.62    0.04    0.09
  HS02004848HS02004852 CONDUIT     17.93     0  01:51      0.42    0.02    0.06
  HS02004856HS02004862 CONDUIT     27.96     0  01:44      0.46    0.03    0.09
  HS02004852HS02004856 CONDUIT     17.92     0  01:52      0.22    0.02    0.12
  HS02004802HS02004478 CONDUIT     96.20     0  01:53      0.42    0.08    0.34
  HS02004478WS02006287 CONDUIT    366.24     0  01:42      1.67    0.10    0.24
  HS02004817HS02004807 CONDUIT     72.77     0  01:55      0.17    0.04    0.61
  HS02004807HS02004802 CONDUIT     95.92     0  01:53      0.36    0.18    0.39
  YS02001759YS02001757 CONDUIT    542.15     0  02:18      0.69    0.39    1.00
  YS02001762YS02001759 CONDUIT    279.89     0  02:18      0.36    0.32    1.00
  YS02001765YS02001762 CONDUIT    278.69     0  02:18      0.35    0.26    1.00
  YS02001770YS02001767 CONDUIT    275.92     0  02:18      0.42    1.09    1.00
  YS02001774YS02001770 CONDUIT    354.81     0  02:54      0.45    0.23    1.00
  YS02001779YS02001774 CONDUIT    355.44     0  02:54      0.45    0.18    1.00
  YS02001649YS02001757 CONDUIT    848.45     0  02:17      1.08    0.51    1.00
  YS02001767YS02001765 CONDUIT    277.43     0  02:18      0.38    0.35    1.00
  YS02006561YS02001783 CONDUIT    900.37     0  02:30      2.07    0.47    1.00
  YS02001783YS02001784 CONDUIT    900.37     0  02:30      1.79    1.24    1.00
  YS02001784YS02001785 CONDUIT    901.41     0  02:30      1.79    2.10    1.00
  YS02001788YS02001790 CONDUIT    901.60     0  02:31      2.14    0.66    1.00
  YS02001790YS02001791 CONDUIT    901.68     0  02:31      2.53    0.98    1.00
  YS02001791YS02001793 CONDUIT    901.95     0  02:31      4.99    0.39    1.00
  YS02001910YS02001907 CONDUIT    320.15     0  03:05      0.50    0.18    1.00
  YS02001786YS02001788 CONDUIT    901.37     0  02:30      2.06    1.74    1.00
  YS02001915YS02001910 CONDUIT    320.07     0  03:05      0.58    0.16    1.00
  YS02001918YS02001915 CONDUIT    144.08     0  03:07      0.44    0.08    1.00
  YS02001923YS02001920 CONDUIT    130.47     0  02:51      0.68    0.06    0.90
  YS02001926YS02001923 CONDUIT    114.97     0  02:51      0.78    0.16    0.61
  YS02001929YS02001926 CONDUIT    122.68     0  02:52      0.83    0.06    0.49
  YS02001920YS02001918 CONDUIT    133.91     0  02:53      0.66    0.13    1.00
  YS02001629YS02163301 CONDUIT    214.42     0  02:01      0.27    0.26    1.00
  YS02001619YS02001622 CONDUIT    191.30     0  02:29      0.73    0.28    1.00
  YS02001622YS02001625 CONDUIT    209.49     0  01:47      0.36    0.11    1.00
  YS02001625YS02001629 CONDUIT    209.99     0  01:47      0.30    0.10    1.00
  YS02163301YS02001633 CONDUIT    214.32     0  02:01      0.27    0.20    1.00
  YS02163601YS02164001 CONDUIT    401.63     0  02:17      0.51    0.36    1.00
  YS02164001YS02001641 CONDUIT    404.02     0  02:17      0.51    0.55    1.00
  YS02001641YS02001644 CONDUIT    404.22     0  02:17      0.51    1.31    1.00
  YS02001647YS02001649 CONDUIT    609.27     0  02:17      0.78    0.32    1.00
  YS02006553YS02006556 CONDUIT    620.53     0  02:32      0.79    0.53    1.00
  YS02006556YS02006558 CONDUIT    620.81     0  02:33      0.79    0.49    1.00
  YSB6556YSB1171       CONDUIT     24.42     0  01:43      0.09    0.03    0.68
  YS02001907YS02006553 CONDUIT    620.63     0  02:32      0.69    0.73    1.00
  YS02006558YS02006561 CONDUIT    900.27     0  02:30      3.18    1.99    1.00
  YS02001633YS02163601 CONDUIT    400.61     0  02:03      0.51    0.42    1.00
  YS02001644YS02001647 CONDUIT    608.35     0  02:17      0.77    0.36    1.00
  YS02001745YS02001748 CONDUIT    614.03     0  02:04      1.64    0.24    0.94
  YS02001748YS02001751 CONDUIT    357.03     0  01:57      1.22    0.18    1.00
  YS02001751YS02001754 CONDUIT    246.61     0  02:05      1.05    0.12    1.00
  YS02001754YS02001757 CONDUIT    246.82     0  02:05      0.33    0.10    1.00
  YS02001882YS02001884 CONDUIT     14.45     0  02:07      0.15    0.02    1.00
  YS02001884YS02001887 CONDUIT     19.55     0  01:32      0.11    0.03    1.00
  YS02001890YS02001895 CONDUIT    338.05     0  02:10      0.46    0.16    1.00
  YS02001895YS02001898 CONDUIT    339.61     0  02:11      0.58    0.59    1.00
  YS02001898YS02001901 CONDUIT    337.73     0  02:10      0.49    0.22    1.00
  YS02001901YS02001904 CONDUIT    337.11     0  02:10      0.45    0.52    1.00
  YS02001904YS02001907 CONDUIT    336.56     0  02:10      0.43    0.12    1.00
  YS02001887YS02001890 CONDUIT    337.79     0  02:10      0.43    0.58    1.00
  YS02001652YS02001649 CONDUIT    324.17     0  02:00      0.61    0.16    1.00
  YS02001655YS02001652 CONDUIT    324.71     0  02:01      1.11    0.16    1.00
  YS02001658YS02001655 CONDUIT    433.25     0  01:56      1.42    0.18    1.00
  YS02001661YS02001658 CONDUIT    645.41     0  02:02      1.73    0.25    1.00
  YS02001664YS02001661 CONDUIT    636.37     0  02:21      1.64    0.20    0.72
  YSB1154YSB6556       CONDUIT     24.02     0  01:41      0.15    0.04    0.57
  YSB1174YSB1171       CONDUIT     20.00     0  01:36      0.07    0.03    0.68
  YSB1171HS02004479    CONDUIT     43.17     0  01:41      0.54    0.03    0.54
  HS02004881HS02006253 CONDUIT     74.61     0  01:43      2.14    0.01    0.26
  YS02001793JiankangQianchi CONDUIT    901.86     0  02:30      1.85    0.07    1.00
  YS02001757CaochengTiaoxuchi CONDUIT   1574.92     0  02:17      2.46    0.69    1.00
  WSF200WS02003060     CONDUIT    591.60     0  02:02      2.03    0.13    0.33
  1                    CONDUIT    792.90     0  02:07      3.12    0.28    0.36
  2                    CONDUIT    131.71     0  02:20      5.23    0.32    0.39
  3                    CONDUIT    478.59     0  06:50      9.73    0.76    0.66
  4                    CONDUIT      0.00     0  00:00      0.00    0.00    0.00
  CC-Pump-1            PUMP       200.00     0  02:10              1.00
  CC-Pump-2            PUMP       200.00     0  02:20              1.00
  JK-Pump-1            PUMP       299.96     0  04:10              1.00
  JK-Pump-2            PUMP       300.00     0  03:00              1.00
  XR-Pump-1            PUMP        95.00     0  00:00              1.00
  XR-Pump-2            PUMP        94.98     0  03:40              1.00
  XR-Pump-3            PUMP         0.00     0  00:00              0.00
  XR-Pump-4            PUMP        95.00     0  00:20              1.00
  
  
  ***************************
  Flow Classification Summary
  ***************************
  
  -------------------------------------------------------------------------------------
                      Adjusted    ---------- Fraction of Time in Flow Class ---------- 
                       /Actual         Up    Down  Sub   Sup   Up    Down  Norm  Inlet 
  Conduit               Length    Dry  Dry   Dry   Crit  Crit  Crit  Crit  Ltd   Ctrl  
  -------------------------------------------------------------------------------------
  WS02003066WSF200        1.00   0.06  0.00  0.00  0.00  0.94  0.00  0.00  0.73  0.00
  WS02006287WS02006284    1.00   0.05  0.01  0.00  0.56  0.38  0.00  0.00  0.72  0.00
  WS02006284WS02006280    1.00   0.05  0.00  0.00  0.00  0.00  0.00  0.95  0.00  0.00
  WS02006280WS02006229    1.00   0.06  0.00  0.00  0.00  0.00  0.00  0.94  0.00  0.00
  WS02006229WS02006228    1.00   0.00  0.00  0.00  1.00  0.00  0.00  0.00  0.00  0.00
  WS02006256WS02006235    1.00   0.01  0.00  0.00  0.99  0.00  0.00  0.00  0.00  0.00
  WS02006253WS02006251    1.00   0.01  0.04  0.00  0.94  0.00  0.01  0.00  0.00  0.00
  WS02006252WS02006251    1.00   0.09  0.00  0.00  0.00  0.00  0.91  0.00  0.00  0.00
  WS02006251WS02006249    1.00   0.00  0.00  0.00  1.00  0.00  0.00  0.00  0.39  0.00
  WS02006249WS02006248    1.00   0.00  0.00  0.00  0.78  0.00  0.22  0.00  0.00  0.00
  WS02006248WS02006247    1.00   0.00  0.00  0.00  0.98  0.00  0.00  0.01  0.31  0.00
  WS02006247WS02006245    1.00   0.01  0.00  0.00  0.96  0.00  0.00  0.03  0.00  0.00
  WS02006245WS02006243    1.00   0.01  0.00  0.00  0.92  0.00  0.00  0.07  0.02  0.00
  WS02006243WS02006242    1.00   0.01  0.00  0.00  0.98  0.00  0.00  0.01  0.30  0.00
  WS02006242WS02006240    1.00   0.01  0.01  0.00  0.98  0.00  0.00  0.00  0.00  0.00
  WS02006240WS02006239    1.00   0.02  0.00  0.00  0.94  0.00  0.00  0.04  0.02  0.00
  WS02006239WS02006238    1.00   0.01  0.00  0.00  0.98  0.00  0.00  0.00  0.09  0.00
  WS02006238WS02006235    1.00   0.01  0.00  0.00  0.99  0.00  0.00  0.00  0.00  0.00
  WS02006235WS02006234    1.00   0.01  0.00  0.00  0.97  0.00  0.01  0.00  0.00  0.00
  WS02006234WS02006232    1.00   0.01  0.00  0.00  0.98  0.00  0.00  0.00  0.00  0.00
  WS02006232WS02006231    1.00   0.01  0.00  0.00  0.98  0.00  0.00  0.00  0.00  0.00
  WS02006231WS02006230    1.00   0.02  0.00  0.00  0.30  0.00  0.68  0.00  0.00  0.00
  WS02006230WS02006229    1.00   0.00  0.00  0.00  0.99  0.00  0.00  0.01  0.00  0.00
  WS02006228WS02006109    1.00   0.00  0.00  0.00  1.00  0.00  0.00  0.00  0.01  0.00
  WS02006116WS02004401    1.00   0.04  0.00  0.00  0.96  0.00  0.00  0.00  0.00  0.00
  WS02006115WS02006116    1.00   0.03  0.00  0.00  0.95  0.00  0.00  0.01  0.00  0.00
  WS02006113WS02006111    1.00   0.01  0.00  0.00  0.01  0.98  0.00  0.00  0.18  0.00
  WS02006112WS02006115    1.00   0.02  0.02  0.00  0.96  0.00  0.01  0.00  0.00  0.00
  WS02006111WS02006112    1.00   0.02  0.00  0.00  0.97  0.01  0.00  0.01  0.92  0.00
  WS02006110WS02006113    1.00   0.00  0.01  0.00  0.99  0.00  0.00  0.00  0.00  0.00
  WS02006109WS02006110    1.00   0.00  0.00  0.00  0.99  0.00  0.00  0.00  0.00  0.00
  WS02004411WS02004412    1.00   0.05  0.00  0.00  0.95  0.00  0.00  0.00  0.00  0.00
  WS02004401WS02004402    1.00   0.04  0.00  0.00  0.96  0.00  0.00  0.00  0.00  0.00
  WS02004413WS02003067    1.00   0.05  0.01  0.00  0.00  0.00  0.94  0.00  0.00  0.00
  WS02004412WS02004413    1.00   0.05  0.00  0.00  0.95  0.00  0.00  0.00  0.01  0.00
  WS02004410WS02004411    1.00   0.05  0.00  0.00  0.95  0.00  0.00  0.00  0.00  0.00
  WS02004409WS02004410    1.00   0.05  0.00  0.00  0.95  0.00  0.00  0.00  0.01  0.00
  WS02004407WS02004409    1.00   0.05  0.00  0.00  0.95  0.00  0.00  0.00  0.88  0.00
  WS02004406WS02004407    1.00   0.00  0.05  0.00  0.95  0.00  0.00  0.00  0.00  0.00
  WS02004405WS02004406    1.00   0.00  0.00  0.00  1.00  0.00  0.00  0.00  0.04  0.00
  WS02004404WS02004405    1.00   0.00  0.00  0.00  1.00  0.00  0.00  0.00  0.00  0.00
  WS02004403WS02004404    1.00   0.00  0.04  0.00  0.96  0.00  0.00  0.00  0.00  0.00
  WS02004402WS02004403    1.00   0.04  0.00  0.00  0.96  0.00  0.00  0.00  0.00  0.00
  WS02004139WS02001211    1.00   0.00  0.00  0.00  1.00  0.00  0.00  0.00  0.00  0.00
  WS02004138WS02004139    1.00   0.00  0.00  0.00  1.00  0.00  0.00  0.00  1.00  0.00
  WS02003067WS02003066    1.00   0.06  0.00  0.00  0.94  0.00  0.00  0.00  0.00  0.00
  WS02001213WS02003059    1.00   0.00  0.00  0.00  1.00  0.00  0.00  0.00  0.00  0.00
  WS02001212WS02001213    1.00   0.00  0.00  0.00  0.58  0.00  0.42  0.00  0.00  0.00
  WS02001211WS02001212    1.00   0.00  0.00  0.00  1.00  0.00  0.00  0.00  0.00  0.00
  WS02003072WS02003073    1.00   0.00  0.00  0.00  0.00  0.00  0.00  1.00  0.00  0.00
  WS02003069WS02003072    1.00   0.00  0.00  0.00  1.00  0.00  0.00  0.00  0.66  0.00
  WS02003060WS02003069    1.00   0.00  0.00  0.00  0.99  0.01  0.00  0.00  0.40  0.00
  WS02003059WS02003060    1.00   0.00  0.00  0.00  1.00  0.00  0.00  0.00  0.02  0.00
  HS02004901HS02004770    1.00   0.05  0.00  0.00  0.95  0.00  0.00  0.00  0.00  0.00
  HS02004876HS02004881    1.00   0.00  0.00  0.00  0.91  0.09  0.00  0.00  0.00  0.00
  HS02004870HS02004876    1.00   0.00  0.00  0.00  1.00  0.00  0.00  0.00  0.95  0.00
  HS02004842HS02004848    1.00   0.00  0.05  0.00  0.95  0.00  0.00  0.00  0.58  0.00
  HS02004837HS02004842    1.00   0.00  0.00  0.00  1.00  0.00  0.00  0.00  0.11  0.00
  HS02004830HS02004837    1.00   0.00  0.00  0.00  1.00  0.00  0.00  0.00  0.99  0.00
  HS02004824HS02004830    1.00   0.00  0.00  0.00  1.00  0.00  0.00  0.00  0.00  0.00
  HS02004817HS02004824    1.00   0.00  0.00  0.00  1.00  0.00  0.00  0.00  1.00  0.00
  HS02004770HS02004777    1.00   0.00  0.05  0.00  0.95  0.00  0.00  0.00  0.02  0.00
  HS02004799HS02004480    1.00   0.00  0.01  0.00  0.94  0.00  0.05  0.00  0.00  0.00
  HS02004792HS02004799    1.00   0.00  0.00  0.00  1.00  0.00  0.00  0.00  0.98  0.00
  HS02004788HS02004792    1.00   0.00  0.00  0.00  1.00  0.00  0.00  0.00  0.98  0.00
  HS02004785HS02004788    1.00   0.00  0.00  0.00  1.00  0.00  0.00  0.00  0.00  0.00
  HS02004777HS02004785    1.00   0.00  0.00  0.00  1.00  0.00  0.00  0.00  0.12  0.00
  HS02004480HS02004478    1.00   0.05  0.00  0.00  0.60  0.00  0.00  0.34  0.00  0.00
  HS02004479HS02004480    1.00   0.01  0.00  0.00  0.99  0.00  0.00  0.00  0.11  0.00
  HS02004862HS02004870    1.00   0.00  0.00  0.00  1.00  0.00  0.00  0.00  0.03  0.00
  HS02004848HS02004852    1.00   0.05  0.00  0.00  0.95  0.00  0.00  0.00  0.78  0.00
  HS02004856HS02004862    1.00   0.00  0.06  0.00  0.94  0.00  0.00  0.00  0.83  0.00
  HS02004852HS02004856    1.00   0.05  0.00  0.00  0.95  0.00  0.00  0.00  0.86  0.00
  HS02004802HS02004478    1.00   0.05  0.00  0.00  0.95  0.00  0.00  0.00  0.02  0.00
  HS02004478WS02006287    1.00   0.06  0.00  0.00  0.70  0.24  0.00  0.00  0.69  0.00
  HS02004817HS02004807    1.00   0.00  0.05  0.00  0.95  0.00  0.00  0.00  0.01  0.00
  HS02004807HS02004802    1.00   0.05  0.00  0.00  0.94  0.00  0.00  0.00  0.00  0.00
  YS02001759YS02001757    1.00   0.00  0.00  0.00  1.00  0.00  0.00  0.00  0.16  0.00
  YS02001762YS02001759    1.00   0.00  0.00  0.00  1.00  0.00  0.00  0.00  0.03  0.00
  YS02001765YS02001762    1.00   0.00  0.00  0.00  1.00  0.00  0.00  0.00  0.13  0.00
  YS02001770YS02001767    1.00   0.00  0.00  0.00  1.00  0.00  0.00  0.00  0.00  0.00
  YS02001774YS02001770    1.00   0.00  0.05  0.00  0.95  0.00  0.00  0.00  0.03  0.00
  YS02001779YS02001774    1.00   0.00  0.00  0.00  1.00  0.00  0.00  0.00  0.17  0.00
  YS02001649YS02001757    1.00   0.00  0.00  0.00  1.00  0.00  0.00  0.00  0.16  0.00
  YS02001767YS02001765    1.00   0.00  0.00  0.00  1.00  0.00  0.00  0.00  0.00  0.00
  YS02006561YS02001783    1.00   0.06  0.00  0.00  0.73  0.21  0.00  0.00  0.58  0.00
  YS02001783YS02001784    1.00   0.00  0.06  0.00  0.94  0.00  0.00  0.00  0.00  0.00
  YS02001784YS02001785    1.00   0.00  0.00  0.00  1.00  0.00  0.00  0.00  0.17  0.00
  YS02001788YS02001790    1.00   0.00  0.00  0.00  0.86  0.14  0.00  0.00  0.32  0.00
  YS02001790YS02001791    1.00   0.00  0.00  0.00  0.82  0.18  0.00  0.00  0.13  0.00
  YS02001791YS02001793    1.00   0.00  0.00  0.00  0.87  0.13  0.00  0.00  0.05  0.00
  YS02001910YS02001907    1.00   0.00  0.00  0.00  0.99  0.00  0.00  0.01  0.12  0.00
  YS02001786YS02001788    1.00   0.00  0.00  0.00  0.82  0.18  0.00  0.00  0.00  0.00
  YS02001915YS02001910    1.00   0.00  0.00  0.00  0.99  0.01  0.00  0.00  0.14  0.00
  YS02001918YS02001915    1.00   0.00  0.00  0.00  1.00  0.00  0.00  0.00  0.57  0.00
  YS02001923YS02001920    1.00   0.00  0.00  0.00  1.00  0.00  0.00  0.00  0.82  0.00
  YS02001926YS02001923    1.00   0.00  0.02  0.00  0.20  0.00  0.79  0.00  0.00  0.00
  YS02001929YS02001926    1.00   0.00  0.05  0.00  0.95  0.00  0.00  0.00  0.78  0.00
  YS02001920YS02001918    1.00   0.00  0.00  0.00  1.00  0.00  0.00  0.00  0.00  0.00
  YS02001629YS02163301    1.00   0.06  0.00  0.00  0.94  0.00  0.00  0.00  0.00  0.00
  YS02001619YS02001622    1.00   0.05  0.00  0.00  0.95  0.00  0.00  0.00  0.00  0.00
  YS02001622YS02001625    1.00   0.05  0.00  0.00  0.95  0.00  0.00  0.00  0.04  0.00
  YS02001625YS02001629    1.00   0.05  0.01  0.00  0.92  0.00  0.01  0.00  0.00  0.00
  YS02163301YS02001633    1.00   0.00  0.06  0.00  0.94  0.00  0.00  0.00  0.00  0.00
  YS02163601YS02164001    1.00   0.00  0.03  0.00  0.97  0.00  0.00  0.00  0.00  0.00
  YS02164001YS02001641    1.00   0.00  0.03  0.00  0.97  0.00  0.00  0.00  0.06  0.00
  YS02001641YS02001644    1.00   0.00  0.00  0.00  1.00  0.00  0.00  0.00  0.00  0.00
  YS02001647YS02001649    1.00   0.00  0.06  0.00  0.94  0.00  0.00  0.00  0.01  0.00
  YS02006553YS02006556    1.00   0.00  0.00  0.00  1.00  0.00  0.00  0.00  0.03  0.00
  YS02006556YS02006558    1.00   0.00  0.00  0.00  1.00  0.00  0.00  0.00  0.00  0.00
  YSB6556YSB1171          1.00   0.01  0.04  0.00  0.95  0.00  0.00  0.00  0.00  0.00
  YS02001907YS02006553    1.00   0.00  0.00  0.00  0.99  0.00  0.00  0.00  0.00  0.00
  YS02006558YS02006561    1.00   0.06  0.00  0.00  0.25  0.69  0.00  0.00  0.51  0.00
  YS02001633YS02163601    1.00   0.00  0.00  0.00  1.00  0.00  0.00  0.00  0.15  0.00
  YS02001644YS02001647    1.00   0.00  0.06  0.00  0.94  0.00  0.00  0.00  0.00  0.00
  YS02001745YS02001748    1.00   0.00  0.00  0.00  0.91  0.00  0.00  0.09  0.03  0.00
  YS02001748YS02001751    1.00   0.00  0.00  0.00  0.98  0.02  0.00  0.00  0.14  0.00
  YS02001751YS02001754    1.00   0.00  0.00  0.00  0.93  0.00  0.00  0.07  0.01  0.00
  YS02001754YS02001757    1.00   0.00  0.00  0.00  1.00  0.00  0.00  0.00  0.17  0.00
  YS02001882YS02001884    1.00   0.06  0.00  0.00  0.94  0.00  0.00  0.00  0.00  0.00
  YS02001884YS02001887    1.00   0.01  0.04  0.00  0.95  0.00  0.00  0.00  0.00  0.00
  YS02001890YS02001895    1.00   0.00  0.06  0.00  0.94  0.00  0.00  0.00  0.00  0.00
  YS02001895YS02001898    1.00   0.06  0.00  0.00  0.93  0.00  0.01  0.00  0.00  0.00
  YS02001898YS02001901    1.00   0.06  0.00  0.00  0.94  0.00  0.00  0.00  0.01  0.00
  YS02001901YS02001904    1.00   0.06  0.00  0.00  0.94  0.00  0.00  0.00  0.00  0.00
  YS02001904YS02001907    1.00   0.00  0.06  0.00  0.94  0.00  0.00  0.00  0.00  0.00
  YS02001887YS02001890    1.00   0.00  0.00  0.00  0.99  0.00  0.01  0.00  0.00  0.00
  YS02001652YS02001649    1.00   0.00  0.00  0.00  1.00  0.00  0.00  0.00  0.15  0.00
  YS02001655YS02001652    1.00   0.00  0.00  0.00  0.93  0.00  0.00  0.07  0.01  0.00
  YS02001658YS02001655    1.00   0.00  0.06  0.00  0.92  0.02  0.00  0.00  0.02  0.00
  YS02001661YS02001658    1.00   0.06  0.00  0.00  0.91  0.03  0.00  0.00  0.03  0.00
  YS02001664YS02001661    1.00   0.05  0.00  0.00  0.88  0.07  0.00  0.00  0.15  0.00
  YSB1154YSB6556          1.00   0.05  0.00  0.00  0.95  0.00  0.00  0.00  0.01  0.00
  YSB1174YSB1171          1.00   0.01  0.03  0.00  0.96  0.00  0.00  0.00  0.00  0.00
  YSB1171HS02004479       1.00   0.01  0.00  0.00  0.99  0.00  0.00  0.00  0.10  0.00
  HS02004881HS02006253    1.00   0.01  0.00  0.00  0.48  0.08  0.00  0.43  0.35  0.00
  YS02001793JiankangQianchi    1.00   0.00  0.00  0.00  0.99  0.01  0.00  0.00  0.26  0.00
  YS02001757CaochengTiaoxuchi    1.00   0.00  0.07  0.00  0.90  0.03  0.00  0.00  0.00  0.00
  WSF200WS02003060        1.00   0.00  0.06  0.00  0.25  0.69  0.00  0.00  0.31  0.00
  1                       1.00   0.00  0.00  0.00  0.00  1.00  0.00  0.00  0.28  0.00
  2                       1.00   0.93  0.00  0.00  0.00  0.07  0.00  0.00  0.01  0.00
  3                       1.00   0.54  0.00  0.00  0.00  0.46  0.00  0.00  0.09  0.00
  4                       1.00   1.00  0.00  0.00  0.00  0.00  0.00  0.00  0.00  0.00
  
  
  *************************
  Conduit Surcharge Summary
  *************************
  
  ----------------------------------------------------------------------------
                                                           Hours        Hours 
                         --------- Hours Full --------   Above Full   Capacity
  Conduit                Both Ends  Upstream  Dnstream   Normal Flow   Limited
  ----------------------------------------------------------------------------
  WS02006229WS02006228        0.99      1.07      0.99      2.40         0.99
  WS02006256WS02006235        4.82      4.82      6.60      2.37         0.01
  WS02006252WS02006251        0.09      0.09      0.25      0.21         0.01
  WS02006251WS02006249        0.01      0.01      0.01      0.17         0.01
  WS02006249WS02006248        0.01      0.01      0.01      2.14         0.01
  WS02006247WS02006245        0.01      0.01      0.01      2.95         0.01
  WS02006243WS02006242        0.01      0.01      0.16      0.01         0.01
  WS02006242WS02006240        0.01      0.01      0.22      0.35         0.01
  WS02006240WS02006239        0.06      0.06      0.08      0.01         0.01
  WS02006239WS02006238        0.26      0.26      0.34      0.01         0.01
  WS02006238WS02006235        0.31      0.31      0.41      0.01         0.01
  WS02006235WS02006234        0.08      0.08      0.27      4.53         0.01
  WS02006234WS02006232        0.24      0.24      0.70      0.01         0.01
  WS02006232WS02006231        0.01      0.01      0.70      0.01         0.01
  WS02006231WS02006230        0.01      0.01      0.07      4.99         0.01
  WS02006230WS02006229        1.25      1.92      1.25      5.74         1.25
  WS02006228WS02006109        1.04      1.17      1.04      3.40         1.04
  WS02006112WS02006115        0.01      0.01      0.74      0.01         0.01
  WS02006111WS02006112        0.01      0.01      2.42      0.01         0.01
  WS02006110WS02006113        0.01      0.01      1.12      0.01         0.01
  WS02006109WS02006110        0.51      0.51      1.17      0.52         0.01
  WS02004405WS02004406        0.01      0.01      0.01      0.69         0.01
  WS02004404WS02004405        0.01      0.06      0.01      5.63         0.01
  WS02004403WS02004404        0.01      0.01      0.06      0.01         0.01
  WS02003072WS02003073        0.01      0.01      0.01      1.19         0.01
  HS02004480HS02004478        0.01      0.01      0.01      0.41         0.01
  YS02001759YS02001757        6.15      6.15      6.19      0.01         0.01
  YS02001762YS02001759        6.15      6.15      6.15      0.01         0.01
  YS02001765YS02001762        6.13      6.13      6.15      0.01         0.01
  YS02001770YS02001767        6.13      6.13      6.13      0.40         0.73
  YS02001774YS02001770        6.11      6.11      6.14      0.01         0.01
  YS02001779YS02001774        5.95      5.95      6.14      0.01         0.01
  YS02001649YS02001757        6.14      6.14      6.19      0.01         0.01
  YS02001767YS02001765        6.13      6.13      6.13      0.01         0.01
  YS02006561YS02001783        0.62      0.62      1.64      0.01         0.01
  YS02001783YS02001784        1.64      1.64      1.68      1.27         1.26
  YS02001784YS02001785        1.65      1.68      1.65      2.21         1.65
  YS02001788YS02001790        1.63      1.63      4.67      0.01         0.01
  YS02001790YS02001791        4.67      4.67      4.89      0.01         0.04
  YS02001791YS02001793        4.89      4.89      5.42      0.01         0.01
  YS02001910YS02001907        1.22      1.22      1.68      0.01         0.01
  YS02001786YS02001788        1.63      1.65      1.63      1.85         1.63
  YS02001915YS02001910        0.92      0.92      1.22      0.01         0.01
  YS02001918YS02001915        0.01      0.01      0.92      0.01         0.01
  YS02001923YS02001920        0.01      0.01      0.28      0.01         0.01
  YS02001920YS02001918        0.01      0.01      0.28      0.01         0.01
  YS02001629YS02163301        6.10      6.10      6.11      0.01         0.01
  YS02001619YS02001622        5.82      5.82      5.86      0.01         0.01
  YS02001622YS02001625        5.86      5.86      6.09      0.01         0.01
  YS02001625YS02001629        5.83      5.83      6.09      0.01         0.01
  YS02163301YS02001633        6.11      6.11      6.12      0.01         0.01
  YS02163601YS02164001        6.12      6.12      6.15      0.01         0.01
  YS02164001YS02001641        6.12      6.12      6.13      0.01         0.03
  YS02001641YS02001644        6.13      6.13      6.13      1.37         1.36
  YS02001647YS02001649        6.08      6.08      6.14      0.01         0.01
  YS02006553YS02006556        1.46      1.46      1.78      0.01         0.01
  YS02006556YS02006558        1.59      1.59      1.84      0.01         0.01
  YS02001907YS02006553        2.25      2.25      2.43      0.01         0.01
  YS02006558YS02006561        1.08      1.43      1.08      2.10         1.08
  YS02001633YS02163601        6.12      6.12      6.15      0.01         0.01
  YS02001644YS02001647        6.08      6.08      6.13      0.01         0.01
  YS02001745YS02001748        0.01      0.01      5.62      0.01         0.01
  YS02001748YS02001751        5.70      5.70      5.81      0.01         0.01
  YS02001751YS02001754        5.81      5.81      5.97      0.01         0.01
  YS02001754YS02001757        6.07      6.07      6.19      0.01         0.01
  YS02001882YS02001884        0.95      0.95      1.00      0.01         0.01
  YS02001884YS02001887        1.08      1.08      1.12      0.01         0.01
  YS02001890YS02001895        0.89      0.89      1.25      0.01         0.01
  YS02001895YS02001898        0.86      0.86      0.89      0.01         0.01
  YS02001898YS02001901        0.90      0.90      1.07      0.01         0.01
  YS02001901YS02001904        1.04      1.04      1.07      0.01         0.01
  YS02001904YS02001907        1.04      1.04      1.79      0.01         0.01
  YS02001887YS02001890        1.16      1.16      1.20      0.01         0.01
  YS02001652YS02001649        6.09      6.09      6.14      0.01         0.01
  YS02001655YS02001652        5.84      5.84      6.05      0.01         0.01
  YS02001658YS02001655        5.67      5.67      5.84      0.01         0.01
  YS02001661YS02001658        0.15      0.15      5.67      0.01         0.01
  YS02001664YS02001661        0.01      0.01      0.92      0.01         0.01
  YS02001793JiankangQianchi        5.28      5.28      6.94      0.01         0.01
  YS02001757CaochengTiaoxuchi        5.49      5.49      6.19      0.01         0.01
  
  
  ***************
  Pumping Summary
  ***************
  
  ---------------------------------------------------------------------------------------------------------
                                                  Min       Avg       Max     Total     Power    % Time Off
                        Percent   Number of      Flow      Flow      Flow    Volume     Usage    Pump Curve
  Pump                 Utilized   Start-Ups       LPS       LPS       LPS  10^6 ltr     Kw-hr    Low   High
  ---------------------------------------------------------------------------------------------------------
  CC-Pump-1                6.38           1      0.00    130.99    200.00     0.240      0.55    0.0    0.0
  CC-Pump-2               53.19           5      0.00    148.00    200.00     2.040      1.81    0.0    6.0
  JK-Pump-1               17.02           4      0.00    161.48    299.96     0.720      3.44    0.0    0.0
  JK-Pump-2               36.17           8      0.00    172.08    300.00     1.620      9.32    0.0    0.0
  XR-Pump-1               59.58           9      0.00     55.73     95.00     0.941      4.92    0.0    0.0
  XR-Pump-2                4.26           1      0.00     54.68     94.98     0.057      0.26    0.0    0.0
  XR-Pump-3                0.00           0      0.00      0.00      0.00     0.000      0.00    0.0    0.0
  XR-Pump-4               76.58           8      0.00     66.31     95.00     1.453      7.17    0.0    0.0
  

  Analysis begun on:  Tue Jan  4 18:58:17 2022
  Analysis ended on:  Tue Jan  4 18:58:20 2022
  Total elapsed time: 00:00:03