
  EPA STORM WATER MANAGEMENT MODEL - VERSION 5.1 (Build 5.3.0.dev0)
  --------------------------------------------------------------

  WARNING 04: minimum elevation drop used for Conduit WS02004404WS02004405
  WARNING 03: negative offset ignored for Link YS02001904YS02001907
  
  *********************************************************
  NOTE: The summary statistics displayed in this report are
  based on results found at every computational time step,  
  not just on results from each reporting time step.
  *********************************************************
  
  ****************
  Analysis Options
  ****************
  Flow Units ............... LPS
  Process Models:
    Rainfall/Runoff ........ YES
    RDII ................... NO
    Snowmelt ............... NO
    Groundwater ............ NO
    Flow Routing ........... YES
    Ponding Allowed ........ NO
    Water Quality .......... NO
  Infiltration Method ...... HORTON
  Flow Routing Method ...... DYNWAVE
  Surcharge Method ......... EXTRAN
  Starting Date ............ 08/28/2015 08:00:00
  Ending Date .............. 08/28/2015 15:50:00
  Antecedent Dry Days ...... 8.0
  Report Time Step ......... 00:01:00
  Wet Time Step ............ 00:01:00
  Dry Time Step ............ 00:01:00
  Routing Time Step ........ 5.00 sec
  Variable Time Step ....... YES
  Maximum Trials ........... 8
  Number of Threads ........ 4
  Head Tolerance ........... 0.001500 m
  
  
  **************************        Volume         Depth
  Runoff Quantity Continuity     hectare-m            mm
  **************************     ---------       -------
  Total Precipitation ......         3.868         8.469
  Evaporation Loss .........         0.000         0.000
  Infiltration Loss ........         0.985         2.157
  Surface Runoff ...........         1.916         4.194
  Final Storage ............         0.968         2.119
  Continuity Error (%) .....        -0.017
  
  
  **************************        Volume        Volume
  Flow Routing Continuity        hectare-m      10^6 ltr
  **************************     ---------     ---------
  Dry Weather Inflow .......         0.616         6.165
  Wet Weather Inflow .......         1.915        19.148
  Groundwater Inflow .......         0.000         0.000
  RDII Inflow ..............         0.000         0.000
  External Inflow ..........         0.102         1.024
  External Outflow .........         1.796        17.960
  Flooding Loss ............         0.403         4.033
  Evaporation Loss .........         0.000         0.000
  Exfiltration Loss ........         0.000         0.000
  Initial Stored Volume ....         0.076         0.761
  Final Stored Volume ......         0.635         6.355
  Continuity Error (%) .....        -4.617
  
  
  *************************
  Highest Continuity Errors
  *************************
  Node YS02001774 (40.26%)
  Node JK-storage (-22.12%)
  Node HS02004842 (20.90%)
  Node YS02001884 (13.88%)
  Node YSB1171 (4.66%)
  
  
  ***************************
  Time-Step Critical Elements
  ***************************
  Link 3 (51.88%)
  Link WS02006252WS02006251 (42.48%)
  Link WS02006280WS02006229 (1.89%)
  
  
  ********************************
  Highest Flow Instability Indexes
  ********************************
  Link WS02006113WS02006111 (38)
  Link YS02001774YS02001770 (26)
  Link YS02001779YS02001774 (25)
  Link WS02006111WS02006112 (25)
  Link YS02001619YS02001622 (23)
  
  
  *************************
  Routing Time Step Summary
  *************************
  Minimum Time Step           :     0.04 sec
  Average Time Step           :     0.80 sec
  Maximum Time Step           :     5.00 sec
  Percent in Steady State     :    -0.00
  Average Iterations per Step :     4.08
  Percent Not Converging      :    19.00
  
  
  ***************************
  Subcatchment Runoff Summary
  ***************************
  
  ------------------------------------------------------------------------------------------------------------------------------
                            Total      Total      Total      Total     Imperv       Perv      Total       Total     Peak  Runoff
                           Precip      Runon       Evap      Infil     Runoff     Runoff     Runoff      Runoff   Runoff   Coeff
  Subcatchment                 mm         mm         mm         mm         mm         mm         mm    10^6 ltr      LPS
  ------------------------------------------------------------------------------------------------------------------------------
  sub0                       8.47       0.00       0.00       0.59       6.61       0.00       6.61        0.01     1.03   0.781
  sub1                       8.47       0.00       0.00       0.93       6.28       0.00       6.28        0.04     7.43   0.741
  sub2                       8.47       0.00       0.00       3.13       4.43       0.00       4.43        0.04     7.08   0.523
  sub3                       8.47       0.00       0.00       3.13       4.39       0.00       4.39        0.10    15.91   0.518
  sub4                       8.47       0.00       0.00       0.93       6.13       0.00       6.13        0.13    19.23   0.724
  sub5                       8.47       0.00       0.00       0.59       6.56       0.00       6.56        0.07    13.22   0.775
  sub7                       8.47       0.00       0.00       0.76       6.45       0.00       6.45        0.02     4.04   0.762
  sub8                       8.47       0.00       0.00       0.76       6.44       0.00       6.44        0.04     7.54   0.761
  sub9                       8.47       0.00       0.00       0.76       6.44       0.00       6.44        0.03     5.65   0.760
  sub10                      8.47       0.00       0.00       0.68       6.50       0.00       6.50        0.07    12.87   0.767
  sub11                      8.47       0.00       0.00       0.68       6.52       0.00       6.52        0.08    13.93   0.769
  sub12                      8.47       0.00       0.00       1.10       6.18       0.00       6.18        0.05    10.23   0.730
  sub14                      8.47       0.00       0.00       0.76       6.44       0.00       6.44        0.06    11.15   0.760
  sub15                      8.47       0.00       0.00       2.54       4.95       0.00       4.95        0.09    15.40   0.584
  sub16                      8.47       0.00       0.00       2.79       4.76       0.00       4.76        0.05     9.37   0.561
  sub17                      8.47       0.00       0.00       2.71       4.82       0.00       4.82        0.04     7.75   0.570
  sub22                      8.47       0.00       0.00       3.64       4.04       0.00       4.04        0.26    47.08   0.477
  sub23                      8.47       0.00       0.00       3.13       4.46       0.00       4.46        0.21    39.46   0.527
  sub60                      8.47       0.00       0.00       1.02       4.75       0.00       4.75        1.44   149.28   0.561
  sub61                      8.47       0.00       0.00       1.44       4.95       0.00       4.95        1.53   180.35   0.585
  sub62                      8.47       0.00       0.00       0.68       5.35       0.00       5.35        1.64   187.08   0.631
  sub63                      8.47       0.00       0.00       2.46       4.37       0.00       4.37        1.32   164.01   0.516
  sub64                      8.47       0.00       0.00       1.27       4.55       0.00       4.55        1.38   141.99   0.537
  sub65                      8.47       0.00       0.00       1.10       4.62       0.00       4.62        1.42   144.28   0.545
  sub66                      8.47       0.00       0.00       2.46       3.94       0.00       3.94        1.21   129.20   0.465
  sub67                      8.47       0.00       0.00       0.68       5.75       0.00       5.75        1.78   226.25   0.679
  sub68                      8.47       0.00       0.00       1.19       5.24       0.00       5.24        1.61   196.27   0.618
  sub69                      8.47       0.00       0.00       1.27       5.53       0.00       5.53        1.29   176.57   0.653
  sub70                      8.47       5.64       0.00       4.80       7.11       0.00       7.11        1.63   167.69   0.504
  sub71                      8.47       0.00       0.00       0.68       5.16       0.00       5.16        1.22   132.38   0.610
  sub72                      8.47       0.00       0.00       0.59       3.87       0.00       3.87        0.79    64.98   0.457
  sub73                      8.47       6.92       0.00       5.23       7.51       0.00       7.51        1.76   149.38   0.488
  sub74                      8.47       0.00       0.00       6.35       1.66       0.00       1.66        0.66    93.55   0.196
  
  
  ******************
  Node Depth Summary
  ******************
  
  ---------------------------------------------------------------------------------
                                 Average  Maximum  Maximum  Time of Max    Reported
                                   Depth    Depth      HGL   Occurrence   Max Depth
  Node                 Type       Meters   Meters   Meters  days hr:min      Meters
  ---------------------------------------------------------------------------------
  WS02001211           JUNCTION     0.62     0.70     5.54     0  04:47        0.70
  WS02001212           JUNCTION     0.36     0.42     5.48     0  07:50        0.42
  WS02001213           JUNCTION     0.59     0.65     5.42     0  04:02        0.65
  WS02003069           JUNCTION     0.42     0.50     5.09     0  02:55        0.50
  WS02003072           JUNCTION     0.49     0.57     4.94     0  02:55        0.57
  WS02003073           JUNCTION     0.29     0.34     4.41     0  02:56        0.34
  WS02003060           JUNCTION     0.38     0.45     5.38     0  02:54        0.45
  WS02003066           JUNCTION     0.24     0.29     5.85     0  02:52        0.29
  WS02003059           JUNCTION     0.65     0.71     5.40     0  04:02        0.71
  WS02003067           JUNCTION     0.58     0.69     6.01     0  02:52        0.69
  WS02004401           JUNCTION     0.68     0.83     6.83     0  02:49        0.83
  WS02004402           JUNCTION     0.71     0.86     6.82     0  02:48        0.86
  WS02004403           JUNCTION     0.73     0.88     6.81     0  02:49        0.88
  WS02004404           JUNCTION     0.81     0.95     6.80     0  02:48        0.95
  WS02004406           JUNCTION     0.81     0.95     6.78     0  02:50        0.95
  WS02004409           JUNCTION     0.50     0.65     6.42     0  02:50        0.65
  WS02004410           JUNCTION     0.52     0.67     6.39     0  02:51        0.67
  WS02004411           JUNCTION     0.53     0.68     6.36     0  02:51        0.68
  WS02004412           JUNCTION     0.55     0.69     6.33     0  02:51        0.69
  WS02004413           JUNCTION     0.71     0.85     6.32     0  02:52        0.85
  WS02004405           JUNCTION     0.80     0.94     6.79     0  02:48        0.94
  WS02006109           JUNCTION     0.76     0.94     7.56     0  02:44        0.94
  WS02006110           JUNCTION     0.75     0.90     7.49     0  02:44        0.90
  WS02006111           JUNCTION     0.22     0.28     6.99     0  02:54        0.28
  WS02006112           JUNCTION     0.85     1.04     6.92     0  02:55        1.04
  WS02006113           JUNCTION     0.34     0.44     7.33     0  02:44        0.44
  WS02006115           JUNCTION     0.57     0.73     6.87     0  02:54        0.73
  WS02006116           JUNCTION     0.65     0.81     6.85     0  02:49        0.81
  WS02006230           JUNCTION     0.73     0.97     7.72     0  02:46        0.97
  WS02006231           JUNCTION     0.48     0.64     7.76     0  02:48        0.64
  WS02006232           JUNCTION     0.62     0.76     7.80     0  02:49        0.76
  WS02006234           JUNCTION     0.53     0.69     7.85     0  03:04        0.69
  WS02006235           JUNCTION     0.56     0.72     7.88     0  03:04        0.72
  WS02006238           JUNCTION     0.59     0.75     7.89     0  03:04        0.75
  WS02006240           JUNCTION     0.47     0.64     7.93     0  03:04        0.64
  WS02006242           JUNCTION     0.53     0.69     7.96     0  03:04        0.69
  WS02006243           JUNCTION     0.40     0.56     7.98     0  03:04        0.56
  WS02006245           JUNCTION     0.38     0.53     8.01     0  02:52        0.53
  WS02006247           JUNCTION     0.40     0.53     8.03     0  02:52        0.53
  WS02006248           JUNCTION     0.34     0.47     8.05     0  02:52        0.47
  WS02006249           JUNCTION     0.38     0.49     8.09     0  02:52        0.49
  WS02006239           JUNCTION     0.54     0.71     7.92     0  03:04        0.71
  WS02006251           JUNCTION     0.36     0.46     8.13     0  02:52        0.46
  WS02006252           JUNCTION     0.31     0.35     8.59     0  02:01        0.35
  WS02006253           JUNCTION     0.39     0.49     8.13     0  02:52        0.49
  WS02006256           JUNCTION     1.07     1.20     8.14     0  03:10        1.20
  WS02004138           JUNCTION     0.14     0.17     7.42     0  00:00        0.17
  WS02004407           JUNCTION     0.23     0.29     6.60     0  02:49        0.29
  WS02006228           JUNCTION     0.76     0.97     7.63     0  02:44        0.97
  WS02006229           JUNCTION     0.73     0.97     7.66     0  02:44        0.97
  WS02006280           JUNCTION     0.06     0.14     8.41     0  02:27        0.14
  WS02006284           JUNCTION     0.36     0.48     8.88     0  02:27        0.48
  WS02006287           JUNCTION     0.09     0.21     9.16     0  02:27        0.21
  WSF200               JUNCTION     0.22     0.30     5.53     0  02:53        0.30
  HS02004901           JUNCTION     0.12     0.22    10.04     0  02:25        0.22
  HS02004881           JUNCTION     0.01     0.02     9.05     0  02:26        0.02
  HS02004876           JUNCTION     0.04     0.10     9.13     0  02:25        0.10
  HS02004870           JUNCTION     0.01     0.04     9.33     0  02:26        0.04
  HS02004862           JUNCTION     0.02     0.05     9.43     0  02:27        0.05
  HS02004856           JUNCTION     0.08     0.11     9.53     0  02:26        0.11
  HS02004852           JUNCTION     0.01     0.03     9.54     0  02:27        0.03
  HS02004848           JUNCTION     0.01     0.03     9.63     0  02:26        0.03
  HS02004842           JUNCTION     0.33     0.36     9.63     0  02:26        0.36
  HS02004837           JUNCTION     0.03     0.05     9.63     0  02:26        0.05
  HS02004830           JUNCTION     0.04     0.06     9.53     0  02:26        0.06
  HS02004824           JUNCTION     0.02     0.04     9.45     0  02:27        0.04
  HS02004817           JUNCTION     0.43     0.53     9.37     0  02:27        0.53
  HS02004807           JUNCTION     0.12     0.20     9.37     0  02:27        0.20
  HS02004802           JUNCTION     0.16     0.24     9.37     0  02:27        0.24
  HS02004799           JUNCTION     0.11     0.25     9.46     0  02:25        0.25
  HS02004792           JUNCTION     0.03     0.09     9.62     0  02:25        0.09
  HS02004788           JUNCTION     0.02     0.07     9.97     0  02:26        0.07
  HS02004785           JUNCTION     0.04     0.13    10.03     0  02:25        0.13
  HS02004777           JUNCTION     0.14     0.24    10.04     0  02:25        0.24
  HS02004770           JUNCTION     0.11     0.21    10.04     0  02:25        0.21
  HS02004480           JUNCTION     0.08     0.19     9.43     0  02:26        0.19
  HS02004479           JUNCTION     0.11     0.23     9.43     0  02:25        0.23
  HS02004478           JUNCTION     0.06     0.12     9.35     0  02:26        0.12
  YS02001745           JUNCTION     0.62     0.85     8.37     0  04:00        0.85
  YS02001748           JUNCTION     1.01     1.30     8.38     0  04:00        1.29
  YS02001751           JUNCTION     1.19     1.98     8.86     0  03:08        1.50
  YS02001754           JUNCTION     1.44     1.99     8.59     0  03:09        1.76
  YS02001762           JUNCTION     1.64     2.02     8.42     0  03:46        1.98
  YS02001765           JUNCTION     1.60     1.96     8.41     0  03:46        1.93
  YS02001767           JUNCTION     1.56     1.92     8.41     0  03:46        1.89
  YS02001770           JUNCTION     1.56     1.90     8.40     0  04:11        1.88
  YS02001774           JUNCTION     1.62     1.97     8.39     0  03:11        1.95
  YS02001779           JUNCTION     1.37     1.68     8.37     0  03:10        1.68
  YS02001882           JUNCTION     0.36     0.63     7.34     0  02:58        0.63
  YS02001884           JUNCTION     0.45     0.72     7.34     0  02:57        0.72
  YS02001759           JUNCTION     1.68     2.05     8.42     0  03:55        2.03
  YS02001887           JUNCTION     0.53     0.80     7.34     0  03:05        0.80
  YS02001890           JUNCTION     0.56     0.83     7.34     0  02:57        0.83
  YS02001898           JUNCTION     0.33     0.59     7.32     0  03:02        0.59
  YS02001901           JUNCTION     0.45     0.72     7.33     0  02:56        0.71
  YS02001904           JUNCTION     0.43     0.70     7.33     0  03:02        0.68
  YS02001907           JUNCTION     0.76     1.05     7.34     0  03:08        1.05
  YS02001910           JUNCTION     0.55     0.81     7.32     0  02:57        0.81
  YS02001915           JUNCTION     0.34     0.60     7.32     0  03:04        0.60
  YS02001918           JUNCTION     0.11     0.25     7.32     0  03:05        0.25
  YS02001619           JUNCTION     1.16     1.61     8.54     0  03:08        1.47
  YS02001629           JUNCTION     1.51     1.85     8.40     0  03:16        1.84
  YS02001641           JUNCTION     1.61     1.94     8.37     0  03:23        1.93
  YS02001644           JUNCTION     1.62     1.92     8.35     0  03:23        1.92
  YS02001652           JUNCTION     1.46     2.11     8.71     0  03:13        1.84
  YS02001655           JUNCTION     1.22     2.20     9.05     0  03:03        1.69
  YS02001920           JUNCTION     0.21     0.32     7.33     0  03:04        0.32
  YS02001923           JUNCTION     0.08     0.12     7.38     0  03:02        0.12
  YS02001926           JUNCTION     0.17     0.23     7.67     0  03:02        0.23
  YS02001929           JUNCTION     0.09     0.12     7.81     0  03:01        0.12
  YS02001658           JUNCTION     0.95     2.30     9.44     0  03:09        1.37
  YS02001661           JUNCTION     0.73     1.93     9.34     0  03:46        1.14
  YS02001664           JUNCTION     0.31     0.56     8.49     0  04:10        0.56
  YS02001622           JUNCTION     1.18     1.62     8.52     0  03:09        1.49
  YS02001633           JUNCTION     1.60     1.95     8.40     0  03:24        1.93
  YS02001649           JUNCTION     1.65     2.05     8.44     0  03:11        2.01
  YS02001757           JUNCTION     1.78     2.16     8.42     0  03:50        2.12
  YS02001895           JUNCTION     0.32     0.59     7.33     0  02:57        0.58
  YS02001625           JUNCTION     1.46     1.78     8.38     0  03:13        1.78
  YS02163301           JUNCTION     1.54     1.90     8.42     0  03:17        1.87
  YS02163601           JUNCTION     1.65     1.99     8.39     0  03:23        1.97
  YS02164001           JUNCTION     1.59     1.92     8.38     0  03:23        1.91
  YS02001647           JUNCTION     1.45     1.80     8.41     0  03:44        1.76
  YSB1154              JUNCTION     0.25     0.38     9.43     0  02:26        0.38
  YSB6556              JUNCTION     0.14     0.26     9.43     0  02:26        0.26
  YSB1174              JUNCTION     0.20     0.32     9.43     0  02:26        0.32
  YSB1171              JUNCTION     0.40     0.53     9.43     0  02:25        0.53
  YS02006553           JUNCTION     0.76     1.07     7.35     0  02:56        1.04
  YS02006561           JUNCTION     0.18     0.35     7.01     0  02:57        0.34
  YS02006556           JUNCTION     0.73     1.02     7.33     0  03:05        1.01
  YS02006558           JUNCTION     0.78     1.06     7.33     0  03:03        1.05
  YS02001783           JUNCTION     0.33     1.13     7.28     0  03:09        0.97
  YS02001784           JUNCTION     0.36     1.20     7.26     0  03:03        0.95
  YS02001786           JUNCTION     0.32     1.37     7.40     0  03:03        0.91
  YS02001788           JUNCTION     0.25     1.25     7.23     0  03:03        0.89
  YS02001790           JUNCTION     0.32     1.80     7.45     0  03:00        1.14
  YS02001791           JUNCTION     0.26     1.32     6.79     0  03:03        1.21
  YS02001793           JUNCTION     0.28     2.82     7.66     0  02:58        1.79
  WS02004139           JUNCTION     0.56     0.64     5.55     0  04:47        0.64
  WSC                  OUTFALL      0.29     0.34     1.01     0  02:57        0.34
  3                    OUTFALL      0.11     0.20     6.20     0  03:10        0.20
  4                    OUTFALL      0.00     0.00     7.00     0  00:00        0.00
  5                    OUTFALL      0.00     0.00     5.00     0  00:00        0.00
  JK-storage           STORAGE      1.27     5.80     6.60     0  03:03        5.80
  CC-storage           STORAGE      1.01     1.37     8.37     0  04:42        1.37
  XR-storage           STORAGE      7.41     7.72     5.72     0  02:23        7.72
  
  
  *******************
  Node Inflow Summary
  *******************
  
  -------------------------------------------------------------------------------------------------
                                  Maximum  Maximum                  Lateral       Total        Flow
                                  Lateral    Total  Time of Max      Inflow      Inflow     Balance
                                   Inflow   Inflow   Occurrence      Volume      Volume       Error
  Node                 Type           LPS      LPS  days hr:min    10^6 ltr    10^6 ltr     Percent
  -------------------------------------------------------------------------------------------------
  WS02001211           JUNCTION      7.35   293.13     0  04:50       0.207        5.82       0.620
  WS02001212           JUNCTION      0.00   293.78     0  04:50           0        5.78       0.336
  WS02001213           JUNCTION      0.00   294.56     0  04:50           0        5.76       0.437
  WS02003069           JUNCTION      0.32   731.26     0  02:54     0.00902        13.7       0.227
  WS02003072           JUNCTION      0.00   731.24     0  02:55           0        13.7       0.278
  WS02003073           JUNCTION      1.82   733.06     0  02:56      0.0514        13.7       0.313
  WS02003060           JUNCTION     16.53   730.98     0  02:54       0.466        13.8       0.216
  WS02003066           JUNCTION      0.00   517.10     0  02:52           0        7.59       0.060
  WS02003059           JUNCTION      0.00   296.28     0  04:51           0        5.74       0.671
  WS02003067           JUNCTION      0.00   517.11     0  02:52           0         7.6       0.126
  WS02004401           JUNCTION      0.00   517.35     0  02:49           0        7.84       0.281
  WS02004402           JUNCTION      0.00   517.30     0  02:49           0        7.82       0.264
  WS02004403           JUNCTION      0.00   517.26     0  02:48           0         7.8       0.240
  WS02004404           JUNCTION      0.16   517.37     0  02:48     0.00457        7.78       0.180
  WS02004406           JUNCTION      0.00   517.48     0  02:49           0        7.75       0.439
  WS02004409           JUNCTION      0.00   517.33     0  02:49           0        7.71       0.220
  WS02004410           JUNCTION      0.00   517.25     0  02:49           0        7.69       0.247
  WS02004411           JUNCTION      0.00   517.17     0  02:49           0        7.67       0.253
  WS02004412           JUNCTION      0.00   517.14     0  02:50           0        7.65       0.272
  WS02004413           JUNCTION      0.00   517.13     0  02:51           0        7.63       0.401
  WS02004405           JUNCTION      0.04   517.41     0  02:49     0.00107        7.77       0.269
  WS02006109           JUNCTION      1.23   511.10     0  02:44      0.0347        7.93       0.276
  WS02006110           JUNCTION      0.00   511.10     0  02:44           0        7.91       0.255
  WS02006111           JUNCTION      0.00   530.13     0  02:44           0        7.87       0.061
  WS02006112           JUNCTION      7.75   520.49     0  02:44      0.0414        7.91       0.378
  WS02006113           JUNCTION      0.00   511.31     0  02:44           0        7.88       0.126
  WS02006115           JUNCTION      0.00   524.60     0  02:55           0        7.88       0.264
  WS02006116           JUNCTION      0.00   518.02     0  02:54           0        7.86       0.250
  WS02006230           JUNCTION     10.28   349.89     0  03:13        0.29        6.62       0.200
  WS02006231           JUNCTION      0.00   338.04     0  03:12           0        6.34       0.194
  WS02006232           JUNCTION      0.00   337.98     0  03:12           0        6.36       0.261
  WS02006234           JUNCTION      0.00   337.02     0  03:13           0        6.37       0.136
  WS02006235           JUNCTION      0.00   336.56     0  03:13           0        6.41       0.166
  WS02006238           JUNCTION      0.00   236.82     0  02:56           0        4.06       0.198
  WS02006240           JUNCTION      0.00   236.69     0  02:56           0        4.06       0.301
  WS02006242           JUNCTION      0.00   236.61     0  02:57           0        4.06       0.360
  WS02006243           JUNCTION      0.00   236.49     0  02:55           0        4.06       0.115
  WS02006245           JUNCTION      0.00   236.44     0  02:54           0        4.07       0.224
  WS02006247           JUNCTION      0.00   236.41     0  02:53           0        4.07       0.170
  WS02006248           JUNCTION      0.00   236.43     0  02:50           0        4.08       0.091
  WS02006249           JUNCTION      0.00   237.46     0  02:33           0        4.09       0.270
  WS02006239           JUNCTION      0.00   236.76     0  02:56           0        4.06       0.296
  WS02006251           JUNCTION      0.08   238.88     0  02:32     0.00217         4.1       0.211
  WS02006252           JUNCTION      0.00   200.00     0  02:01           0        3.87       0.011
  WS02006253           JUNCTION      1.03    41.74     0  02:26     0.00535        0.24       1.615
  WS02006256           JUNCTION      0.00   600.00     0  03:30           0        6.67       0.045
  WS02004138           JUNCTION      0.00   285.00     0  00:00           0        5.64       0.094
  WS02004407           JUNCTION      0.00   517.36     0  02:49           0        7.72       0.099
  WS02006228           JUNCTION      0.00   509.87     0  02:44           0        7.91       0.197
  WS02006229           JUNCTION      0.00   509.87     0  02:44           0        7.92       0.157
  WS02006280           JUNCTION      0.00   204.81     0  02:27           0        1.31       0.005
  WS02006284           JUNCTION      0.10   204.80     0  02:27      0.0027        1.31       0.088
  WS02006287           JUNCTION      0.00   204.70     0  02:27           0        1.31       0.053
  WSF200               JUNCTION      0.00   517.11     0  02:52           0        7.59       0.056
  HS02004901           JUNCTION      9.37     9.37     0  02:23      0.0498      0.0501       3.647
  HS02004881           JUNCTION      4.04    40.75     0  02:26      0.0217        0.23       0.127
  HS02004876           JUNCTION      7.43    36.75     0  02:26      0.0417       0.209       0.259
  HS02004870           JUNCTION      7.54    29.42     0  02:26      0.0411       0.167       0.066
  HS02004862           JUNCTION      7.28    22.06     0  02:26      0.0469       0.126       0.136
  HS02004856           JUNCTION      5.65    14.84     0  02:26       0.031      0.0805       1.823
  HS02004852           JUNCTION      0.00     9.33     0  02:26           0      0.0496       0.109
  HS02004848           JUNCTION     15.91    15.91     0  02:26      0.0988      0.0988       0.047
  HS02004842           JUNCTION      0.00     6.79     0  02:52           0      0.0622      26.416
  HS02004837           JUNCTION     19.22    25.66     0  02:25       0.251         0.3       0.272
  HS02004830           JUNCTION      0.15    25.80     0  02:26     0.00423        0.29       0.427
  HS02004824           JUNCTION     19.28    44.91     0  02:27       0.129       0.418       0.129
  HS02004817           JUNCTION      0.60    45.51     0  02:27      0.0169       0.435       3.988
  HS02004807           JUNCTION     13.93    58.94     0  02:27      0.0757       0.494       0.884
  HS02004802           JUNCTION      0.00    59.00     0  02:28           0       0.491       0.814
  HS02004799           JUNCTION     11.15   123.20     0  02:25      0.0613       0.713       0.360
  HS02004792           JUNCTION     47.36   112.13     0  02:24       0.263       0.652       0.064
  HS02004788           JUNCTION     17.07    65.26     0  02:25       0.132        0.39       0.101
  HS02004785           JUNCTION      0.15    48.39     0  02:25     0.00423       0.259       0.188
  HS02004777           JUNCTION      0.03    48.40     0  02:24    0.000846        0.26       2.037
  HS02004770           JUNCTION     39.46    48.64     0  02:23       0.213       0.261       1.203
  HS02004480           JUNCTION      0.00   146.07     0  02:25           0       0.837       0.127
  HS02004479           JUNCTION      0.00    23.09     0  02:27           0       0.137       0.537
  HS02004478           JUNCTION      0.00   204.69     0  02:26           0        1.31       0.031
  YS02001745           JUNCTION    149.28   341.70     0  03:10        1.44        1.47       0.729
  YS02001748           JUNCTION      0.04   453.18     0  03:10     0.00127        1.46       1.562
  YS02001751           JUNCTION      0.01   329.88     0  02:55     0.00031        1.41       1.664
  YS02001754           JUNCTION      0.26   227.91     0  03:04     0.00733        1.39       1.816
  YS02001762           JUNCTION      0.00   199.51     0  03:01           0        1.56       1.370
  YS02001765           JUNCTION      0.00   197.77     0  03:01           0        1.56       1.589
  YS02001767           JUNCTION      0.54   196.23     0  03:01      0.0151        1.58       2.321
  YS02001770           JUNCTION    187.24   192.20     0  03:01        1.65        1.66       1.962
  YS02001774           JUNCTION      0.00    32.79     0  01:57           0      0.0627      67.389
  YS02001779           JUNCTION      0.01    20.49     0  02:51    0.000141      0.0301     103.316
  YS02001882           JUNCTION      0.00    14.25     0  02:58           0      0.0123      18.934
  YS02001884           JUNCTION      0.00    17.88     0  02:53           0      0.0393      16.117
  YS02001759           JUNCTION    180.39   381.38     0  03:01        1.53        3.05       0.758
  YS02001887           JUNCTION    226.70   239.66     0  03:01        1.79        1.81       0.433
  YS02001890           JUNCTION      0.00   236.87     0  02:59           0        1.77       0.481
  YS02001898           JUNCTION      0.00   242.51     0  02:57           0        1.76       0.154
  YS02001901           JUNCTION      0.00   248.70     0  02:59           0        1.76       0.353
  YS02001904           JUNCTION      0.00   243.83     0  02:57           0        1.75       0.325
  YS02001907           JUNCTION      0.00   459.81     0  02:56           0        3.82       0.606
  YS02001910           JUNCTION      0.00   218.88     0  02:57           0        2.08       0.527
  YS02001915           JUNCTION    132.40   204.30     0  02:58        1.22        2.08       0.254
  YS02001918           JUNCTION      0.00    72.75     0  03:09           0       0.866       0.176
  YS02001619           JUNCTION    129.20   129.20     0  03:01        1.21        1.21       0.991
  YS02001629           JUNCTION      0.00   168.45     0  02:57           0        1.13       2.561
  YS02001641           JUNCTION      0.00   309.06     0  03:01           0        2.44       0.873
  YS02001644           JUNCTION    142.03   449.59     0  03:01        1.38        4.36       0.604
  YS02001652           JUNCTION      0.00   257.59     0  03:04           0        1.27       1.910
  YS02001655           JUNCTION      0.15   366.60     0  02:50     0.00434        1.29       1.832
  YS02001920           JUNCTION      2.87    67.64     0  03:02      0.0809       0.868       0.287
  YS02001923           JUNCTION      0.04    64.78     0  03:02     0.00106       0.788       0.052
  YS02001926           JUNCTION      0.05    64.97     0  03:01     0.00147       0.789       0.356
  YS02001929           JUNCTION     64.98    64.98     0  03:01       0.788       0.788       0.051
  YS02001658           JUNCTION      0.00   572.62     0  03:04           0        1.38       1.387
  YS02001661           JUNCTION      0.00   483.61     0  03:43           0        2.03       0.423
  YS02001664           JUNCTION    164.01   395.55     0  03:43        1.32        1.97       0.254
  YS02001622           JUNCTION      0.00   159.27     0  02:57           0         1.2       2.699
  YS02001633           JUNCTION    144.48   308.66     0  03:01        1.43         2.5       1.307
  YS02001649           JUNCTION      0.00   629.28     0  03:04           0        4.12       0.905
  YS02001757           JUNCTION      0.00  1108.82     0  03:02           0         7.9       1.182
  YS02001895           JUNCTION      0.00   239.44     0  02:59           0        1.76       0.240
  YS02001625           JUNCTION      0.00   168.45     0  02:57           0        1.16       3.460
  YS02163301           JUNCTION      0.00   167.90     0  03:07           0         1.1       2.235
  YS02163601           JUNCTION      0.11   308.76     0  03:01      0.0031        2.47       1.236
  YS02164001           JUNCTION      0.00   308.94     0  03:01           0        2.45       0.832
  YS02001647           JUNCTION      0.00   449.52     0  03:01           0        3.15       0.915
  YSB1154              JUNCTION     13.22    13.22     0  02:24      0.0743      0.0752       1.964
  YSB6556              JUNCTION      0.00    13.14     0  02:25           0      0.0759       1.671
  YSB1174              JUNCTION     10.23    10.23     0  02:22       0.054      0.0546       2.413
  YSB1171              JUNCTION      0.00    23.08     0  02:25           0       0.136       4.884
  YS02006553           JUNCTION      0.00   444.16     0  02:58           0        3.81       0.381
  YS02006561           JUNCTION      0.00   678.41     0  03:05           0        5.39       0.003
  YS02006556           JUNCTION      0.00   443.54     0  02:58           0        3.81       0.283
  YS02006558           JUNCTION    197.15   665.18     0  02:57        1.63        5.42       0.098
  YS02001783           JUNCTION      0.00   639.32     0  03:02           0        5.39       0.035
  YS02001784           JUNCTION      1.06   632.01     0  02:59      0.0299        5.42       0.058
  YS02001786           JUNCTION      0.06   630.87     0  02:58     0.00159        5.42       0.049
  YS02001788           JUNCTION      0.07   633.92     0  03:05       0.002        5.42       0.031
  YS02001790           JUNCTION      0.15   639.48     0  03:00     0.00437        5.42       0.040
  YS02001791           JUNCTION      0.00   633.72     0  02:59           0        5.42       0.022
  YS02001793           JUNCTION      0.00   717.04     0  02:58           0        5.42      -0.001
  WS02004139           JUNCTION      0.32   290.40     0  00:00     0.00905        5.65       0.694
  WSC                  OUTFALL       0.00   733.05     0  02:57           0        13.7       0.000
  3                    OUTFALL       0.00   498.54     0  03:10           0        4.29       0.000
  4                    OUTFALL       0.00     0.00     0  00:00           0           0       0.000 ltr
  5                    OUTFALL       0.00     0.00     0  00:00           0           0       0.000 ltr
  JK-storage           STORAGE       0.00   989.65     0  02:57           0        5.57     -18.116
  CC-storage           STORAGE       0.00  1109.15     0  03:02           0        7.48       0.846
  XR-storage           STORAGE     442.93   442.93     0  03:01        8.07        8.67      -0.001
  
  
  **********************
  Node Surcharge Summary
  **********************
  
  Surcharging occurs when water rises above the top of the highest conduit.
  ---------------------------------------------------------------------
                                               Max. Height   Min. Depth
                                   Hours       Above Crown    Below Rim
  Node                 Type      Surcharged         Meters       Meters
  ---------------------------------------------------------------------
  WS02006109           JUNCTION        1.46          0.123        1.697
  WS02006112           JUNCTION        0.69          0.041        1.639
  WS02006232           JUNCTION        0.95          0.063        1.417
  WS02006235           JUNCTION        0.48          0.011        1.279
  WS02006238           JUNCTION        0.60          0.026        1.404
  WS02006228           JUNCTION        1.43          0.144        2.056
  YS02001748           JUNCTION        4.39          0.223        0.967
  YS02001751           JUNCTION        4.79          0.976        0.224
  YS02001754           JUNCTION        5.20          0.935        0.215
  YS02001762           JUNCTION        5.50          1.017        0.133
  YS02001765           JUNCTION        5.47          0.964        0.136
  YS02001767           JUNCTION        5.44          0.921        0.109
  YS02001770           JUNCTION        5.41          0.871        0.049
  YS02001774           JUNCTION        5.49          0.967        0.083
  YS02001779           JUNCTION        5.18          0.680        0.000
  YS02001759           JUNCTION        5.53          1.052        0.158
  YS02001907           JUNCTION        0.30          0.043        0.907
  YS02001619           JUNCTION        4.74          0.610        0.000
  YS02001629           JUNCTION        4.80          0.470        0.000
  YS02001641           JUNCTION        5.48          0.937        0.163
  YS02001644           JUNCTION        5.48          0.920        0.000
  YS02001652           JUNCTION        5.28          1.080        0.050
  YS02001655           JUNCTION        4.82          1.200        0.000
  YS02001658           JUNCTION        4.42          1.300        0.000
  YS02001661           JUNCTION        0.08          0.862        0.528
  YS02001622           JUNCTION        4.87          0.620        0.000
  YS02001633           JUNCTION        5.46          0.928        0.132
  YS02001649           JUNCTION        5.51          1.050        0.000
  YS02001757           JUNCTION        5.64          1.156        0.054
  YS02001625           JUNCTION        5.35          0.780        0.000
  YS02163301           JUNCTION        5.43          0.901        0.129
  YS02163601           JUNCTION        5.51          0.988        0.092
  YS02164001           JUNCTION        5.47          0.924        0.176
  YS02001647           JUNCTION        5.31          0.799        0.101
  YS02006553           JUNCTION        0.39          0.070        1.120
  YS02001783           JUNCTION        0.09          0.334        1.266
  YS02001784           JUNCTION        0.16          0.396        1.094
  YS02001786           JUNCTION        0.10          0.573        0.857
  YS02001788           JUNCTION        0.05          0.449        1.031
  YS02001790           JUNCTION        0.50          1.002        0.155
  YS02001791           JUNCTION        0.54          0.517        1.403
  YS02001793           JUNCTION        0.64          1.824        0.776
  
  
  *********************
  Node Flooding Summary
  *********************
  
  Flooding refers to all water that overflows a node, whether it ponds or not.
  --------------------------------------------------------------------------
                                                             Total   Maximum
                                 Maximum   Time of Max       Flood    Ponded
                        Hours       Rate    Occurrence      Volume     Depth
  Node                 Flooded       LPS   days hr:min    10^6 ltr    Meters
  --------------------------------------------------------------------------
  YS02001779              1.02      8.85      0  04:00       0.009     0.000
  YS02001619              0.01     39.10      0  03:12       0.000     0.000
  YS02001629              0.01     30.16      0  03:16       0.000     0.000
  YS02001644              3.02    433.09      0  04:06       1.733     0.000
  YS02001655              0.01    171.18      0  03:05       0.000     0.000
  YS02001658              0.01    203.31      0  03:13       0.001     0.000
  YS02001622              0.01     28.51      0  03:12       0.000     0.000
  YS02001649              0.01     24.29      0  03:46       0.000     0.000
  YS02001625              0.05     11.73      0  03:17       0.000     0.000
  JK-storage              0.35    214.12      0  03:20       0.131     0.000
  XR-storage              4.71    304.22      0  03:20       2.158     0.000
  
  
  **********************
  Storage Volume Summary
  **********************
  
  --------------------------------------------------------------------------------------------------
                         Average     Avg  Evap Exfil       Maximum     Max    Time of Max    Maximum
                          Volume    Pcnt  Pcnt  Pcnt        Volume    Pcnt     Occurrence    Outflow
  Storage Unit           1000 m3    Full  Loss  Loss       1000 m3    Full    days hr:min        LPS
  --------------------------------------------------------------------------------------------------
  JK-storage               0.064      22     0     0         0.291     100       0  03:03     600.00
  CC-storage               2.806      18     0     0         3.807      24       0  04:42     200.00
  XR-storage               0.890      96     0     0         0.926     100       0  02:23     285.00
  
  
  ***********************
  Outfall Loading Summary
  ***********************
  
  -----------------------------------------------------------
                         Flow       Avg       Max       Total
                         Freq      Flow      Flow      Volume
  Outfall Node           Pcnt       LPS       LPS    10^6 ltr
  -----------------------------------------------------------
  WSC                   99.99    549.51    733.05      13.667
  3                     87.90    225.80    498.54       4.294
  4                      0.00      0.00      0.00       0.000
  5                      0.00      0.00      0.00       0.000
  -----------------------------------------------------------
  System                46.97    775.31   1228.81      17.960
  
  
  ********************
  Link Flow Summary
  ********************
  
  -----------------------------------------------------------------------------
                                 Maximum  Time of Max   Maximum    Max/    Max/
                                  |Flow|   Occurrence   |Veloc|    Full    Full
  Link                 Type          LPS  days hr:min     m/sec    Flow   Depth
  -----------------------------------------------------------------------------
  WS02003066WSF200     CONDUIT    517.11     0  02:52      2.71    0.09    0.23
  WS02006287WS02006284 CONDUIT    204.71     0  02:27      1.62    0.09    0.22
  WS02006284WS02006280 CONDUIT    204.81     0  02:27      1.86    0.09    0.20
  WS02006280WS02006229 CONDUIT    204.81     0  02:27      2.99    0.04    0.14
  WS02006229WS02006228 CONDUIT    509.87     0  02:44      1.01    1.69    1.00
  WS02006256WS02006235 CONDUIT    166.25     0  00:01      2.58    1.76    1.00
  WS02006253WS02006251 CONDUIT     45.33     0  02:15      0.43    0.14    0.67
  WS02006252WS02006251 CONDUIT    200.34     0  02:01      1.97    0.74    0.76
  WS02006251WS02006249 CONDUIT    237.46     0  02:33      0.96    0.68    0.68
  WS02006249WS02006248 CONDUIT    236.43     0  02:50      1.04    1.30    0.67
  WS02006248WS02006247 CONDUIT    236.41     0  02:53      1.01    0.51    0.71
  WS02006247WS02006245 CONDUIT    236.44     0  02:54      0.97    1.87    0.75
  WS02006245WS02006243 CONDUIT    236.49     0  02:55      1.02    0.70    0.77
  WS02006243WS02006242 CONDUIT    236.61     0  02:57      0.86    0.51    0.88
  WS02006242WS02006240 CONDUIT    236.69     0  02:56      0.77    0.94    0.95
  WS02006240WS02006239 CONDUIT    236.76     0  02:56      0.84    0.75    0.93
  WS02006239WS02006238 CONDUIT    236.82     0  02:56      0.77    0.76    1.00
  WS02006238WS02006235 CONDUIT    238.59     0  04:10      1.25    0.53    1.00
  WS02006235WS02006234 CONDUIT    337.02     0  03:13      0.95    3.56    0.98
  WS02006234WS02006232 CONDUIT    337.98     0  03:12      1.13    0.68    1.00
  WS02006232WS02006231 CONDUIT    338.04     0  03:12      0.95    0.71    0.95
  WS02006231WS02006230 CONDUIT    339.61     0  03:13      1.30    5.15    0.88
  WS02006230WS02006229 CONDUIT    352.15     0  03:12      0.92    7.84    1.00
  WS02006228WS02006109 CONDUIT    509.87     0  02:44      1.01    2.23    1.00
  WS02006116WS02004401 CONDUIT    517.35     0  02:49      0.75    0.71    0.82
  WS02006115WS02006116 CONDUIT    518.02     0  02:54      0.83    0.66    0.74
  WS02006113WS02006111 CONDUIT    530.13     0  02:44      2.42    0.64    0.45
  WS02006112WS02006115 CONDUIT    524.60     0  02:55      0.73    0.31    0.86
  WS02006111WS02006112 CONDUIT    514.18     0  02:44      1.44    0.24    0.67
  WS02006110WS02006113 CONDUIT    511.31     0  02:44      1.22    0.47    0.78
  WS02006109WS02006110 CONDUIT    511.10     0  02:44      1.02    0.98    1.00
  WS02004411WS02004412 CONDUIT    517.14     0  02:50      0.91    0.73    0.68
  WS02004401WS02004402 CONDUIT    517.30     0  02:49      0.77    0.62    0.85
  WS02004413WS02003067 CONDUIT    517.11     0  02:52      1.09    0.22    0.58
  WS02004412WS02004413 CONDUIT    517.13     0  02:51      0.80    0.35    0.77
  WS02004410WS02004411 CONDUIT    517.17     0  02:49      0.92    0.71    0.67
  WS02004409WS02004410 CONDUIT    517.25     0  02:49      0.94    0.67    0.66
  WS02004407WS02004409 CONDUIT    517.33     0  02:49      1.42    0.18    0.47
  WS02004406WS02004407 CONDUIT    517.36     0  02:49      1.02    0.23    0.62
  WS02004405WS02004406 CONDUIT    517.48     0  02:49      0.67    1.02    0.94
  WS02004404WS02004405 CONDUIT    517.37     0  02:49      0.84    5.07    0.95
  WS02004403WS02004404 CONDUIT    517.21     0  02:48      0.74    0.37    0.91
  WS02004402WS02004403 CONDUIT    517.26     0  02:48      0.75    0.74    0.87
  WS02004139WS02001211 CONDUIT    285.78     0  04:50      0.81    0.36    0.52
  WS02004138WS02004139 CONDUIT    290.07     0  00:00      3.33    0.06    0.38
  WS02003067WS02003066 CONDUIT    517.10     0  02:52      1.18    0.17    0.41
  WS02001213WS02003059 CONDUIT    296.28     0  04:51      0.80    0.49    0.67
  WS02001212WS02001213 CONDUIT    294.56     0  04:50      1.18    0.45    0.37
  WS02001211WS02001212 CONDUIT    293.78     0  04:50      0.66    0.22    0.56
  WS02003072WS02003073 CONDUIT    731.24     0  02:56      1.58    1.58    0.43
  WS02003069WS02003072 CONDUIT    731.24     0  02:55      1.50    0.35    0.45
  WS02003060WS02003069 CONDUIT    730.94     0  02:54      1.76    0.29    0.40
  WS02003059WS02003060 CONDUIT    298.64     0  04:51      0.80    0.19    0.58
  HS02004901HS02004770 CONDUIT      9.22     0  02:24      0.05    0.03    0.31
  HS02004876HS02004881 CONDUIT     36.81     0  02:26      0.59    0.39    0.09
  HS02004870HS02004876 CONDUIT     29.40     0  02:26      0.41    0.02    0.10
  HS02004842HS02004848 CONDUIT      6.79     0  02:52      0.04    0.00    0.28
  HS02004837HS02004842 CONDUIT      7.01     0  03:02      0.41    0.00    0.29
  HS02004830HS02004837 CONDUIT     25.65     0  02:26      0.46    0.03    0.08
  HS02004824HS02004830 CONDUIT     25.79     0  02:27      0.49    0.03    0.08
  HS02004817HS02004824 CONDUIT     44.91     0  02:27      0.17    0.02    0.41
  HS02004770HS02004777 CONDUIT     48.37     0  02:24      0.21    0.09    0.33
  HS02004799HS02004480 CONDUIT    123.11     0  02:25      0.58    0.16    0.31
  HS02004792HS02004799 CONDUIT    112.10     0  02:25      0.66    0.07    0.24
  HS02004788HS02004792 CONDUIT     65.23     0  02:26      0.81    0.04    0.11
  HS02004785HS02004788 CONDUIT     48.34     0  02:26      0.49    0.36    0.14
  HS02004777HS02004785 CONDUIT     48.24     0  02:25      0.26    0.06    0.26
  HS02004480HS02004478 CONDUIT    146.06     0  02:26      0.94    0.62    0.22
  HS02004479HS02004480 CONDUIT     23.22     0  02:27      0.27    0.02    0.30
  HS02004862HS02004870 CONDUIT     22.03     0  02:27      0.49    0.02    0.06
  HS02004848HS02004852 CONDUIT      9.33     0  02:26      0.33    0.01    0.04
  HS02004856HS02004862 CONDUIT     14.82     0  02:26      0.35    0.01    0.06
  HS02004852HS02004856 CONDUIT      9.30     0  02:27      0.14    0.01    0.10
  HS02004802HS02004478 CONDUIT     59.19     0  02:29      0.33    0.05    0.26
  HS02004478WS02006287 CONDUIT    204.70     0  02:27      1.31    0.06    0.17
  HS02004817HS02004807 CONDUIT     45.68     0  02:29      0.13    0.03    0.52
  HS02004807HS02004802 CONDUIT     59.00     0  02:28      0.28    0.11    0.31
  YS02001759YS02001757 CONDUIT    382.29     0  03:01      0.49    0.27    1.00
  YS02001762YS02001759 CONDUIT    201.08     0  03:01      0.26    0.23    1.00
  YS02001765YS02001762 CONDUIT    199.51     0  03:01      0.28    0.19    1.00
  YS02001770YS02001767 CONDUIT    195.70     0  03:01      0.25    0.78    1.00
  YS02001774YS02001770 CONDUIT     32.79     0  01:57      0.22    0.02    1.00
  YS02001779YS02001774 CONDUIT     20.49     0  02:51      0.05    0.01    1.00
  YS02001649YS02001757 CONDUIT    629.80     0  03:04      0.80    0.38    1.00
  YS02001767YS02001765 CONDUIT    197.77     0  03:01      0.30    0.25    1.00
  YS02006561YS02001783 CONDUIT    639.32     0  03:02      2.11    0.33    0.71
  YS02001783YS02001784 CONDUIT    630.95     0  02:59      1.57    0.87    1.00
  YS02001784YS02001785 CONDUIT    630.81     0  02:58      1.67    1.47    1.00
  YS02001788YS02001790 CONDUIT    639.33     0  03:00      2.21    0.47    1.00
  YS02001790YS02001791 CONDUIT    633.72     0  02:59      2.64    0.69    1.00
  YS02001791YS02001793 CONDUIT    717.04     0  02:58      5.32    0.31    1.00
  YS02001910YS02001907 CONDUIT    217.48     0  03:10      0.49    0.12    0.91
  YS02001786YS02001788 CONDUIT    633.85     0  03:05      2.12    1.22    1.00
  YS02001915YS02001910 CONDUIT    218.88     0  02:57      0.55    0.11    0.71
  YS02001918YS02001915 CONDUIT     80.40     0  03:09      0.44    0.04    0.42
  YS02001923YS02001920 CONDUIT     64.77     0  03:02      0.57    0.03    0.22
  YS02001926YS02001923 CONDUIT     64.74     0  03:02      0.66    0.09    0.18
  YS02001929YS02001926 CONDUIT     64.92     0  03:01      0.71    0.03    0.17
  YS02001920YS02001918 CONDUIT     72.75     0  03:09      0.57    0.07    0.28
  YS02001629YS02163301 CONDUIT    167.90     0  03:07      0.21    0.21    1.00
  YS02001619YS02001622 CONDUIT    159.27     0  02:57      0.57    0.23    1.00
  YS02001622YS02001625 CONDUIT    168.45     0  02:57      0.31    0.09    1.00
  YS02001625YS02001629 CONDUIT    168.45     0  02:57      0.22    0.08    1.00
  YS02163301YS02001633 CONDUIT    167.56     0  03:07      0.21    0.16    1.00
  YS02163601YS02164001 CONDUIT    308.94     0  03:01      0.39    0.27    1.00
  YS02164001YS02001641 CONDUIT    309.06     0  03:01      0.39    0.42    1.00
  YS02001641YS02001644 CONDUIT    308.68     0  03:01      0.39    1.00    1.00
  YS02001647YS02001649 CONDUIT    449.44     0  03:01      0.57    0.24    1.00
  YS02006553YS02006556 CONDUIT    443.54     0  02:58      0.57    0.38    0.99
  YS02006556YS02006558 CONDUIT    474.75     0  03:05      0.61    0.37    1.00
  YSB6556YSB1171       CONDUIT     13.19     0  02:28      0.06    0.01    0.57
  YS02001907YS02006553 CONDUIT    444.16     0  02:58      0.49    0.52    1.00
  YS02006558YS02006561 CONDUIT    678.41     0  03:05      3.18    1.50    0.74
  YS02001633YS02163601 CONDUIT    308.65     0  03:01      0.39    0.32    1.00
  YS02001644YS02001647 CONDUIT    449.52     0  03:01      0.57    0.26    1.00
  YS02001745YS02001748 CONDUIT    453.13     0  03:10      1.42    0.17    0.93
  YS02001748YS02001751 CONDUIT    329.87     0  02:55      1.00    0.17    1.00
  YS02001751YS02001754 CONDUIT    227.65     0  03:04      0.86    0.11    1.00
  YS02001754YS02001757 CONDUIT    228.53     0  03:04      0.33    0.09    1.00
  YS02001882YS02001884 CONDUIT     16.71     0  03:06      0.09    0.02    0.64
  YS02001884YS02001887 CONDUIT     18.16     0  03:06      0.05    0.02    0.74
  YS02001890YS02001895 CONDUIT    239.44     0  02:59      0.41    0.11    0.71
  YS02001895YS02001898 CONDUIT    242.51     0  02:57      0.53    0.42    0.57
  YS02001898YS02001901 CONDUIT    248.70     0  02:59      0.47    0.16    0.65
  YS02001901YS02001904 CONDUIT    243.83     0  02:57      0.42    0.38    0.70
  YS02001904YS02001907 CONDUIT    260.11     0  02:56      0.37    0.09    0.85
  YS02001887YS02001890 CONDUIT    236.87     0  02:59      0.36    0.41    0.79
  YS02001652YS02001649 CONDUIT    257.69     0  03:04      0.56    0.13    1.00
  YS02001655YS02001652 CONDUIT    257.59     0  03:04      0.91    0.13    1.00
  YS02001658YS02001655 CONDUIT    366.45     0  02:50      1.15    0.16    1.00
  YS02001661YS02001658 CONDUIT    572.62     0  03:04      1.49    0.22    1.00
  YS02001664YS02001661 CONDUIT    483.61     0  03:43      1.38    0.15    0.70
  YSB1154YSB6556       CONDUIT     13.14     0  02:25      0.16    0.02    0.46
  YSB1174YSB1171       CONDUIT     10.08     0  02:23      0.04    0.02    0.57
  YSB1171HS02004479    CONDUIT     23.09     0  02:27      0.54    0.02    0.44
  HS02004881HS02006253 CONDUIT     40.76     0  02:26      1.69    0.01    0.12
  YS02001793JiankangQianchi CONDUIT    989.65     0  02:57     14.84    0.08    1.00
  YS02001757CaochengTiaoxuchi CONDUIT   1109.15     0  03:02      1.60    0.49    1.00
  WSF200WS02003060     CONDUIT    517.11     0  02:52      1.80    0.11    0.31
  1                    CONDUIT    733.05     0  02:57      3.06    0.26    0.34
  2                    CONDUIT      0.00     0  00:00      0.00    0.00    0.00
  3                    CONDUIT    498.54     0  03:10      9.79    0.79    0.68
  4                    CONDUIT      0.00     0  00:00      0.00    0.00    0.00
  CC-Pump-1            PUMP         0.00     0  00:00              0.00
  CC-Pump-2            PUMP       200.00     0  02:01              1.00
  JK-Pump-1            PUMP       300.00     0  03:00              1.00
  JK-Pump-2            PUMP       300.00     0  00:00              1.00
  XR-Pump-1            PUMP        95.00     0  00:00              1.00
  XR-Pump-2            PUMP         0.00     0  00:00              0.00
  XR-Pump-3            PUMP        95.00     0  00:00              1.00
  XR-Pump-4            PUMP        95.00     0  00:00              1.00
  
  
  ***************************
  Flow Classification Summary
  ***************************
  
  -------------------------------------------------------------------------------------
                      Adjusted    ---------- Fraction of Time in Flow Class ---------- 
                       /Actual         Up    Down  Sub   Sup   Up    Down  Norm  Inlet 
  Conduit               Length    Dry  Dry   Dry   Crit  Crit  Crit  Crit  Ltd   Ctrl  
  -------------------------------------------------------------------------------------
  WS02003066WSF200        1.00   0.06  0.00  0.00  0.00  0.94  0.00  0.00  0.67  0.00
  WS02006287WS02006284    1.00   0.04  0.01  0.00  0.61  0.34  0.00  0.00  0.77  0.00
  WS02006284WS02006280    1.00   0.04  0.00  0.00  0.00  0.00  0.00  0.96  0.00  0.00
  WS02006280WS02006229    1.00   0.04  0.00  0.00  0.00  0.00  0.00  0.96  0.00  0.00
  WS02006229WS02006228    1.00   0.00  0.00  0.00  0.99  0.00  0.00  0.01  0.00  0.00
  WS02006256WS02006235    1.00   0.00  0.00  0.00  1.00  0.00  0.00  0.00  0.00  0.00
  WS02006253WS02006251    1.00   0.03  0.01  0.00  0.96  0.00  0.00  0.00  0.00  0.00
  WS02006252WS02006251    1.00   0.07  0.00  0.00  0.00  0.00  0.93  0.00  0.00  0.00
  WS02006251WS02006249    1.00   0.00  0.00  0.00  1.00  0.00  0.00  0.00  0.23  0.00
  WS02006249WS02006248    1.00   0.00  0.02  0.00  0.91  0.00  0.06  0.00  0.00  0.00
  WS02006248WS02006247    1.00   0.02  0.00  0.00  0.98  0.00  0.00  0.00  0.11  0.00
  WS02006247WS02006245    1.00   0.02  0.00  0.00  0.98  0.00  0.00  0.00  0.00  0.00
  WS02006245WS02006243    1.00   0.01  0.00  0.00  0.95  0.00  0.00  0.03  0.01  0.00
  WS02006243WS02006242    1.00   0.01  0.00  0.00  0.99  0.00  0.00  0.00  0.21  0.00
  WS02006242WS02006240    1.00   0.00  0.00  0.00  1.00  0.00  0.00  0.00  0.00  0.00
  WS02006240WS02006239    1.00   0.00  0.00  0.00  0.97  0.00  0.00  0.03  0.01  0.00
  WS02006239WS02006238    1.00   0.00  0.00  0.00  1.00  0.00  0.00  0.00  0.02  0.00
  WS02006238WS02006235    1.00   0.00  0.00  0.00  1.00  0.00  0.00  0.00  0.00  0.00
  WS02006235WS02006234    1.00   0.00  0.00  0.00  0.97  0.00  0.03  0.00  0.00  0.00
  WS02006234WS02006232    1.00   0.00  0.00  0.00  1.00  0.00  0.00  0.00  0.05  0.00
  WS02006232WS02006231    1.00   0.00  0.00  0.00  0.99  0.00  0.00  0.00  0.00  0.00
  WS02006231WS02006230    1.00   0.00  0.00  0.00  0.42  0.00  0.57  0.00  0.00  0.00
  WS02006230WS02006229    1.00   0.00  0.00  0.00  0.99  0.00  0.00  0.01  0.01  0.00
  WS02006228WS02006109    1.00   0.00  0.00  0.00  1.00  0.00  0.00  0.00  0.00  0.00
  WS02006116WS02004401    1.00   0.02  0.00  0.00  0.98  0.00  0.00  0.00  0.00  0.00
  WS02006115WS02006116    1.00   0.02  0.00  0.00  0.97  0.00  0.00  0.01  0.00  0.00
  WS02006113WS02006111    1.00   0.02  0.00  0.00  0.00  0.98  0.00  0.00  0.11  0.00
  WS02006112WS02006115    1.00   0.02  0.00  0.00  0.98  0.00  0.00  0.00  0.00  0.00
  WS02006111WS02006112    1.00   0.02  0.00  0.00  0.98  0.00  0.00  0.00  0.98  0.00
  WS02006110WS02006113    1.00   0.01  0.01  0.00  0.98  0.00  0.00  0.00  0.00  0.00
  WS02006109WS02006110    1.00   0.00  0.01  0.00  0.98  0.00  0.01  0.00  0.00  0.00
  WS02004411WS02004412    1.00   0.04  0.00  0.00  0.96  0.00  0.00  0.00  0.00  0.00
  WS02004401WS02004402    1.00   0.02  0.00  0.00  0.98  0.00  0.00  0.00  0.00  0.00
  WS02004413WS02003067    1.00   0.04  0.01  0.00  0.00  0.00  0.95  0.00  0.00  0.00
  WS02004412WS02004413    1.00   0.04  0.00  0.00  0.96  0.00  0.00  0.00  0.03  0.00
  WS02004410WS02004411    1.00   0.04  0.00  0.00  0.96  0.00  0.00  0.00  0.03  0.00
  WS02004409WS02004410    1.00   0.04  0.00  0.00  0.96  0.00  0.00  0.00  0.03  0.00
  WS02004407WS02004409    1.00   0.04  0.00  0.00  0.96  0.00  0.00  0.00  0.89  0.00
  WS02004406WS02004407    1.00   0.00  0.04  0.00  0.96  0.00  0.00  0.00  0.00  0.00
  WS02004405WS02004406    1.00   0.00  0.00  0.00  1.00  0.00  0.00  0.00  0.00  0.00
  WS02004404WS02004405    1.00   0.00  0.00  0.00  1.00  0.00  0.00  0.00  0.00  0.00
  WS02004403WS02004404    1.00   0.00  0.02  0.00  0.98  0.00  0.00  0.00  0.01  0.00
  WS02004402WS02004403    1.00   0.02  0.00  0.00  0.98  0.00  0.00  0.00  0.00  0.00
  WS02004139WS02001211    1.00   0.00  0.00  0.00  1.00  0.00  0.00  0.00  0.00  0.00
  WS02004138WS02004139    1.00   0.00  0.00  0.00  0.99  0.01  0.00  0.00  1.00  0.00
  WS02003067WS02003066    1.00   0.05  0.00  0.00  0.94  0.00  0.00  0.00  0.00  0.00
  WS02001213WS02003059    1.00   0.00  0.00  0.00  0.99  0.00  0.00  0.00  0.00  0.00
  WS02001212WS02001213    1.00   0.00  0.00  0.00  0.89  0.00  0.11  0.00  0.00  0.00
  WS02001211WS02001212    1.00   0.00  0.00  0.00  1.00  0.00  0.00  0.00  0.00  0.00
  WS02003072WS02003073    1.00   0.00  0.00  0.00  0.00  0.00  0.00  1.00  0.00  0.00
  WS02003069WS02003072    1.00   0.00  0.00  0.00  0.99  0.01  0.00  0.00  0.24  0.00
  WS02003060WS02003069    1.00   0.00  0.00  0.00  0.98  0.02  0.00  0.00  0.14  0.00
  WS02003059WS02003060    1.00   0.00  0.00  0.00  1.00  0.00  0.00  0.00  0.01  0.00
  HS02004901HS02004770    1.00   0.04  0.00  0.00  0.96  0.00  0.00  0.00  0.00  0.00
  HS02004876HS02004881    1.00   0.02  0.00  0.00  0.98  0.00  0.00  0.00  0.00  0.00
  HS02004870HS02004876    1.00   0.00  0.00  0.00  0.99  0.00  0.00  0.00  0.95  0.00
  HS02004842HS02004848    1.00   0.00  0.04  0.00  0.96  0.00  0.00  0.00  0.61  0.00
  HS02004837HS02004842    1.00   0.00  0.00  0.00  0.99  0.01  0.00  0.00  0.11  0.00
  HS02004830HS02004837    1.00   0.00  0.00  0.00  1.00  0.00  0.00  0.00  0.99  0.00
  HS02004824HS02004830    1.00   0.00  0.00  0.00  1.00  0.00  0.00  0.00  0.00  0.00
  HS02004817HS02004824    1.00   0.00  0.00  0.00  1.00  0.00  0.00  0.00  1.00  0.00
  HS02004770HS02004777    1.00   0.00  0.04  0.00  0.96  0.00  0.00  0.00  0.03  0.00
  HS02004799HS02004480    1.00   0.00  0.02  0.00  0.95  0.00  0.02  0.00  0.00  0.00
  HS02004792HS02004799    1.00   0.00  0.00  0.00  0.99  0.01  0.00  0.00  0.98  0.00
  HS02004788HS02004792    1.00   0.00  0.00  0.00  0.99  0.01  0.00  0.00  0.98  0.00
  HS02004785HS02004788    1.00   0.00  0.00  0.00  1.00  0.00  0.00  0.00  0.00  0.00
  HS02004777HS02004785    1.00   0.00  0.00  0.00  1.00  0.00  0.00  0.00  0.13  0.00
  HS02004480HS02004478    1.00   0.04  0.00  0.00  0.67  0.00  0.00  0.29  0.00  0.00
  HS02004479HS02004480    1.00   0.03  0.00  0.00  0.97  0.00  0.00  0.00  0.12  0.00
  HS02004862HS02004870    1.00   0.00  0.00  0.00  1.00  0.00  0.00  0.00  0.06  0.00
  HS02004848HS02004852    1.00   0.04  0.00  0.00  0.96  0.00  0.00  0.00  0.69  0.00
  HS02004856HS02004862    1.00   0.00  0.05  0.00  0.95  0.00  0.00  0.00  0.81  0.00
  HS02004852HS02004856    1.00   0.04  0.00  0.00  0.96  0.00  0.00  0.00  0.86  0.00
  HS02004802HS02004478    1.00   0.04  0.00  0.00  0.96  0.00  0.00  0.00  0.03  0.00
  HS02004478WS02006287    1.00   0.05  0.00  0.00  0.76  0.20  0.00  0.00  0.77  0.00
  HS02004817HS02004807    1.00   0.00  0.04  0.00  0.96  0.00  0.00  0.00  0.01  0.00
  HS02004807HS02004802    1.00   0.04  0.00  0.00  0.96  0.00  0.00  0.00  0.00  0.00
  YS02001759YS02001757    1.00   0.00  0.00  0.00  1.00  0.00  0.00  0.00  0.16  0.00
  YS02001762YS02001759    1.00   0.00  0.00  0.00  1.00  0.00  0.00  0.00  0.03  0.00
  YS02001765YS02001762    1.00   0.00  0.00  0.00  1.00  0.00  0.00  0.00  0.15  0.00
  YS02001770YS02001767    1.00   0.00  0.00  0.00  1.00  0.00  0.00  0.00  0.00  0.00
  YS02001774YS02001770    1.00   0.00  0.04  0.00  0.96  0.00  0.00  0.00  0.03  0.00
  YS02001779YS02001774    1.00   0.00  0.00  0.00  1.00  0.00  0.00  0.00  0.21  0.00
  YS02001649YS02001757    1.00   0.00  0.00  0.00  1.00  0.00  0.00  0.00  0.16  0.00
  YS02001767YS02001765    1.00   0.00  0.00  0.00  1.00  0.00  0.00  0.00  0.01  0.00
  YS02006561YS02001783    1.00   0.05  0.00  0.00  0.09  0.86  0.00  0.00  0.65  0.00
  YS02001783YS02001784    1.00   0.00  0.05  0.00  0.95  0.00  0.00  0.00  0.01  0.00
  YS02001784YS02001785    1.00   0.00  0.00  0.00  1.00  0.00  0.00  0.00  0.19  0.00
  YS02001788YS02001790    1.00   0.00  0.00  0.00  0.16  0.84  0.00  0.00  0.60  0.00
  YS02001790YS02001791    1.00   0.00  0.00  0.00  0.12  0.88  0.00  0.00  0.66  0.00
  YS02001791YS02001793    1.00   0.00  0.00  0.00  0.13  0.87  0.00  0.00  0.01  0.00
  YS02001910YS02001907    1.00   0.00  0.00  0.00  0.98  0.00  0.00  0.02  0.12  0.00
  YS02001786YS02001788    1.00   0.00  0.00  0.00  0.15  0.85  0.00  0.00  0.00  0.00
  YS02001915YS02001910    1.00   0.00  0.00  0.00  0.99  0.01  0.00  0.00  0.18  0.00
  YS02001918YS02001915    1.00   0.00  0.01  0.00  0.98  0.01  0.00  0.00  0.69  0.00
  YS02001923YS02001920    1.00   0.00  0.00  0.00  1.00  0.00  0.00  0.00  1.00  0.00
  YS02001926YS02001923    1.00   0.00  0.03  0.00  0.00  0.00  0.97  0.00  0.00  0.00
  YS02001929YS02001926    1.00   0.00  0.04  0.00  0.96  0.00  0.00  0.00  0.87  0.00
  YS02001920YS02001918    1.00   0.00  0.01  0.00  0.99  0.00  0.00  0.00  0.00  0.00
  YS02001629YS02163301    1.00   0.05  0.00  0.00  0.95  0.00  0.00  0.00  0.00  0.00
  YS02001619YS02001622    1.00   0.04  0.00  0.00  0.96  0.00  0.00  0.00  0.00  0.00
  YS02001622YS02001625    1.00   0.04  0.00  0.00  0.96  0.00  0.00  0.00  0.07  0.00
  YS02001625YS02001629    1.00   0.04  0.01  0.00  0.93  0.00  0.01  0.00  0.00  0.00
  YS02163301YS02001633    1.00   0.00  0.05  0.00  0.95  0.00  0.00  0.00  0.00  0.00
  YS02163601YS02164001    1.00   0.00  0.03  0.00  0.97  0.00  0.00  0.00  0.00  0.00
  YS02164001YS02001641    1.00   0.01  0.03  0.00  0.97  0.00  0.00  0.00  0.06  0.00
  YS02001641YS02001644    1.00   0.00  0.01  0.00  0.99  0.00  0.00  0.00  0.00  0.00
  YS02001647YS02001649    1.00   0.00  0.05  0.00  0.95  0.00  0.00  0.00  0.01  0.00
  YS02006553YS02006556    1.00   0.01  0.00  0.00  0.99  0.00  0.00  0.00  0.03  0.00
  YS02006556YS02006558    1.00   0.00  0.00  0.00  1.00  0.00  0.00  0.00  0.00  0.00
  YSB6556YSB1171          1.00   0.03  0.01  0.00  0.96  0.00  0.00  0.00  0.00  0.00
  YS02001907YS02006553    1.00   0.00  0.02  0.00  0.98  0.00  0.00  0.00  0.00  0.00
  YS02006558YS02006561    1.00   0.05  0.00  0.00  0.00  0.95  0.00  0.00  0.60  0.00
  YS02001633YS02163601    1.00   0.00  0.01  0.00  0.99  0.00  0.00  0.00  0.15  0.00
  YS02001644YS02001647    1.00   0.00  0.05  0.00  0.95  0.00  0.00  0.00  0.00  0.00
  YS02001745YS02001748    1.00   0.00  0.00  0.00  0.88  0.01  0.00  0.11  0.06  0.00
  YS02001748YS02001751    1.00   0.00  0.00  0.00  0.97  0.03  0.00  0.00  0.16  0.00
  YS02001751YS02001754    1.00   0.00  0.00  0.00  0.94  0.00  0.00  0.06  0.02  0.00
  YS02001754YS02001757    1.00   0.00  0.00  0.00  0.99  0.01  0.00  0.00  0.20  0.00
  YS02001882YS02001884    1.00   0.04  0.00  0.00  0.95  0.00  0.00  0.00  0.00  0.00
  YS02001884YS02001887    1.00   0.03  0.01  0.00  0.96  0.00  0.00  0.00  0.00  0.00
  YS02001890YS02001895    1.00   0.00  0.04  0.00  0.95  0.00  0.00  0.00  0.00  0.00
  YS02001895YS02001898    1.00   0.05  0.00  0.00  0.94  0.00  0.01  0.00  0.00  0.00
  YS02001898YS02001901    1.00   0.05  0.00  0.00  0.95  0.00  0.00  0.00  0.03  0.00
  YS02001901YS02001904    1.00   0.05  0.00  0.00  0.95  0.00  0.00  0.00  0.00  0.00
  YS02001904YS02001907    1.00   0.00  0.05  0.00  0.95  0.00  0.00  0.00  0.00  0.00
  YS02001887YS02001890    1.00   0.00  0.00  0.00  0.98  0.00  0.02  0.00  0.00  0.00
  YS02001652YS02001649    1.00   0.00  0.00  0.00  1.00  0.00  0.00  0.00  0.18  0.00
  YS02001655YS02001652    1.00   0.00  0.00  0.00  0.94  0.00  0.00  0.06  0.02  0.00
  YS02001658YS02001655    1.00   0.00  0.04  0.00  0.93  0.02  0.00  0.00  0.12  0.00
  YS02001661YS02001658    1.00   0.04  0.00  0.00  0.87  0.08  0.00  0.00  0.15  0.00
  YS02001664YS02001661    1.00   0.04  0.00  0.00  0.84  0.12  0.00  0.00  0.29  0.00
  YSB1154YSB6556          1.00   0.04  0.00  0.00  0.96  0.00  0.00  0.00  0.02  0.00
  YSB1174YSB1171          1.00   0.03  0.01  0.00  0.96  0.00  0.00  0.00  0.00  0.00
  YSB1171HS02004479       1.00   0.03  0.00  0.00  0.97  0.00  0.00  0.00  0.10  0.00
  HS02004881HS02006253    1.00   0.03  0.00  0.00  0.81  0.02  0.00  0.14  0.67  0.00
  YS02001793JiankangQianchi    1.00   0.00  0.00  0.00  0.37  0.63  0.00  0.00  0.21  0.00
  YS02001757CaochengTiaoxuchi    1.00   0.00  0.07  0.00  0.93  0.00  0.00  0.00  0.00  0.00
  WSF200WS02003060        1.00   0.00  0.06  0.00  0.51  0.43  0.00  0.00  0.14  0.00
  1                       1.00   0.00  0.00  0.00  0.00  1.00  0.00  0.00  0.30  0.00
  2                       1.00   1.00  0.00  0.00  0.00  0.00  0.00  0.00  0.00  0.00
  3                       1.00   0.12  0.00  0.00  0.00  0.88  0.00  0.00  0.24  0.00
  4                       1.00   1.00  0.00  0.00  0.00  0.00  0.00  0.00  0.00  0.00
  
  
  *************************
  Conduit Surcharge Summary
  *************************
  
  ----------------------------------------------------------------------------
                                                           Hours        Hours 
                         --------- Hours Full --------   Above Full   Capacity
  Conduit                Both Ends  Upstream  Dnstream   Normal Flow   Limited
  ----------------------------------------------------------------------------
  WS02006229WS02006228        1.43      1.50      1.43      5.23         1.43
  WS02006256WS02006235        6.08      6.09      7.35      4.99         0.01
  WS02006249WS02006248        0.01      0.01      0.01      4.97         0.01
  WS02006247WS02006245        0.01      0.01      0.01      5.29         0.01
  WS02006239WS02006238        0.41      0.41      0.60      0.01         0.01
  WS02006238WS02006235        0.57      0.57      0.69      0.01         0.01
  WS02006235WS02006234        0.01      0.01      0.48      6.10         0.01
  WS02006234WS02006232        0.01      0.01      0.95      0.01         0.01
  WS02006232WS02006231        0.01      0.01      0.95      0.01         0.01
  WS02006231WS02006230        0.01      0.01      0.01      6.11         0.01
  WS02006230WS02006229        1.97      4.40      1.97      6.22         1.97
  WS02006228WS02006109        1.46      1.72      1.46      5.70         1.46
  WS02006112WS02006115        0.01      0.01      0.69      0.01         0.01
  WS02006111WS02006112        0.01      0.01      5.25      0.01         0.01
  WS02006110WS02006113        0.01      0.01      1.58      0.01         0.01
  WS02006109WS02006110        0.01      0.01      1.72      0.01         0.01
  WS02004405WS02004406        0.01      0.01      0.01      0.49         0.01
  WS02004404WS02004405        0.01      0.01      0.01      5.99         0.01
  WS02003072WS02003073        0.01      0.01      0.01      5.41         0.01
  YS02001759YS02001757        5.53      5.53      5.64      0.01         0.01
  YS02001762YS02001759        5.50      5.50      5.53      0.01         0.01
  YS02001765YS02001762        5.47      5.47      5.50      0.01         0.01
  YS02001770YS02001767        5.43      5.43      5.44      0.01         0.53
  YS02001774YS02001770        5.41      5.41      5.49      0.01         0.01
  YS02001779YS02001774        5.18      5.18      5.49      0.01         0.01
  YS02001649YS02001757        5.51      5.51      5.64      0.01         0.01
  YS02001767YS02001765        5.44      5.44      5.47      0.01         0.01
  YS02006561YS02001783        0.01      0.01      0.09      0.01         0.01
  YS02001783YS02001784        0.09      0.09      0.16      0.01         0.01
  YS02001784YS02001785        0.10      0.16      0.10      1.10         0.09
  YS02001788YS02001790        0.05      0.05      0.50      0.01         0.01
  YS02001790YS02001791        0.50      0.50      0.54      0.01         0.01
  YS02001791YS02001793        0.54      0.54      0.68      0.01         0.01
  YS02001910YS02001907        0.01      0.01      0.30      0.01         0.01
  YS02001786YS02001788        0.05      0.10      0.05      0.55         0.04
  YS02001629YS02163301        5.40      5.40      5.43      0.01         0.01
  YS02001619YS02001622        4.74      4.74      4.87      0.01         0.02
  YS02001622YS02001625        4.87      4.87      5.35      0.01         0.01
  YS02001625YS02001629        4.80      4.80      5.35      0.01         0.01
  YS02163301YS02001633        5.43      5.43      5.47      0.01         0.01
  YS02163601YS02164001        5.47      5.47      5.51      0.01         0.01
  YS02164001YS02001641        5.47      5.47      5.48      0.01         0.03
  YS02001641YS02001644        5.48      5.48      5.48      0.01         0.62
  YS02001647YS02001649        5.31      5.31      5.51      0.01         0.01
  YS02006553YS02006556        0.01      0.01      0.39      0.01         0.01
  YS02006556YS02006558        0.03      0.03      0.52      0.01         0.01
  YS02001907YS02006553        1.13      1.13      1.35      0.01         0.01
  YS02006558YS02006561        0.01      0.01      0.01      0.94         0.01
  YS02001633YS02163601        5.46      5.46      5.51      0.01         0.01
  YS02001644YS02001647        5.31      5.31      5.48      0.01         0.01
  YS02001745YS02001748        0.01      0.01      4.38      0.01         0.01
  YS02001748YS02001751        4.52      4.52      4.79      0.01         0.01
  YS02001751YS02001754        4.79      4.79      5.20      0.01         0.01
  YS02001754YS02001757        5.29      5.29      5.64      0.01         0.01
  YS02001904YS02001907        0.01      0.01      0.43      0.01         0.01
  YS02001652YS02001649        5.33      5.33      5.51      0.01         0.01
  YS02001655YS02001652        4.82      4.82      5.28      0.01         0.01
  YS02001658YS02001655        4.41      4.41      4.82      0.01         0.01
  YS02001661YS02001658        0.08      0.08      4.41      0.01         0.01
  YS02001664YS02001661        0.01      0.01      0.71      0.01         0.01
  YS02001793JiankangQianchi        0.64      0.64      1.97      0.01         0.01
  YS02001757CaochengTiaoxuchi        4.47      4.47      5.64      0.01         0.01
  
  
  ***************
  Pumping Summary
  ***************
  
  ---------------------------------------------------------------------------------------------------------
                                                  Min       Avg       Max     Total     Power    % Time Off
                        Percent   Number of      Flow      Flow      Flow    Volume     Usage    Pump Curve
  Pump                 Utilized   Start-Ups       LPS       LPS       LPS  10^6 ltr     Kw-hr    Low   High
  ---------------------------------------------------------------------------------------------------------
  CC-Pump-1                0.00           0      0.00      0.00      0.00     0.000      0.00    0.0    0.0
  CC-Pump-2               75.61           1      0.00    182.53    200.00     3.865      4.99    0.0   12.4
  JK-Pump-1               72.34           6      0.00    156.16    300.00     2.762     40.86    0.0    0.0
  JK-Pump-2              100.00           1      0.00    173.10    300.00     3.907     60.03    0.0    0.0
  XR-Pump-1               89.36           6      0.00     75.73     95.00     1.938     13.45    0.0    0.0
  XR-Pump-2                0.00           0      0.00      0.00      0.00     0.000      0.00    0.0    0.0
  XR-Pump-3               80.84           8      0.00     66.27     95.00     1.482      9.91    0.0    0.0
  XR-Pump-4               95.74           6      0.00     81.06     95.00     2.223     15.25    0.0    0.0
  

  Analysis begun on:  Mon Jan  3 16:26:38 2022
  Analysis ended on:  Mon Jan  3 16:26:42 2022
  Total elapsed time: 00:00:04