
  EPA STORM WATER MANAGEMENT MODEL - VERSION 5.1 (Build 5.3.0.dev0)
  --------------------------------------------------------------

  WARNING 04: minimum elevation drop used for Conduit WS02004404WS02004405
  WARNING 03: negative offset ignored for Link YS02001904YS02001907
  
  *********************************************************
  NOTE: The summary statistics displayed in this report are
  based on results found at every computational time step,  
  not just on results from each reporting time step.
  *********************************************************
  
  ****************
  Analysis Options
  ****************
  Flow Units ............... LPS
  Process Models:
    Rainfall/Runoff ........ YES
    RDII ................... NO
    Snowmelt ............... NO
    Groundwater ............ NO
    Flow Routing ........... YES
    Ponding Allowed ........ NO
    Water Quality .......... YES
  Infiltration Method ...... HORTON
  Flow Routing Method ...... DYNWAVE
  Surcharge Method ......... EXTRAN
  Starting Date ............ 08/28/2015 08:00:00
  Ending Date .............. 08/28/2015 15:50:00
  Antecedent Dry Days ...... 8.0
  Report Time Step ......... 00:01:00
  Wet Time Step ............ 00:01:00
  Dry Time Step ............ 00:01:00
  Routing Time Step ........ 5.00 sec
  Variable Time Step ....... YES
  Maximum Trials ........... 8
  Number of Threads ........ 4
  Head Tolerance ........... 0.001500 m
  
  
  **************************        Volume         Depth
  Runoff Quantity Continuity     hectare-m            mm
  **************************     ---------       -------
  Total Precipitation ......         3.863         8.458
  Evaporation Loss .........         0.000         0.000
  Infiltration Loss ........         0.768         1.682
  Surface Runoff ...........         2.426         5.311
  Final Storage ............         0.670         1.467
  Continuity Error (%) .....        -0.019
  
  
  **************************           COD            SS            TN            TP         NH4-N
  Runoff Quality Continuity             kg            kg            kg            kg            kg
  **************************    ----------    ----------    ----------    ----------    ----------
  Initial Buildup ..........     41378.656     70582.865      1804.177       168.684      1032.807
  Surface Buildup ..........        14.788        22.980         2.258         0.208         1.328
  Wet Deposition ...........         0.000         0.000         0.000         0.000         0.000
  Sweeping Removal .........         0.000         0.000         0.000         0.000         0.000
  Infiltration Loss ........        49.018        88.562         0.947         0.065         0.447
  BMP Removal ..............         0.000         0.000         0.000         0.000         0.000
  Surface Runoff ...........      1682.241      2960.740        33.374         2.202        15.773
  Remaining Buildup ........     39661.690     67555.668      1772.104       166.624      1017.910
  Continuity Error (%) .....         0.001         0.001         0.001         0.000         0.000
  
  
  **************************        Volume        Volume
  Flow Routing Continuity        hectare-m      10^6 ltr
  **************************     ---------     ---------
  Dry Weather Inflow .......         0.616         6.165
  Wet Weather Inflow .......         2.425        24.249
  Groundwater Inflow .......         0.000         0.000
  RDII Inflow ..............         0.000         0.000
  External Inflow ..........         0.102         1.024
  External Outflow .........         1.373        13.728
  Flooding Loss ............         1.204        12.040
  Evaporation Loss .........         0.000         0.000
  Exfiltration Loss ........         0.000         0.000
  Initial Stored Volume ....         0.076         0.761
  Final Stored Volume ......         0.646         6.461
  Continuity Error (%) .....        -0.094
  
  
  **************************           COD            SS            TN            TP         NH4-N
  Quality Routing Continuity            kg            kg            kg            kg            kg
  **************************    ----------    ----------    ----------    ----------    ----------
  Dry Weather Inflow .......      1541.201      2465.922       147.955        18.494        92.472
  Wet Weather Inflow .......      1681.923      2960.244        33.366         2.202        15.770
  Groundwater Inflow .......         0.000         0.000         0.000         0.000         0.000
  RDII Inflow ..............         0.000         0.000         0.000         0.000         0.000
  External Inflow ..........       183.418       293.469        17.608         2.201        11.005
  External Outflow .........      1786.657      2961.207       130.997        15.753        80.228
  Flooding Loss ............       993.166      1701.236        37.671         3.827        21.300
  Exfiltration Loss ........         0.000         0.000         0.000         0.000         0.000
  Mass Reacted .............         0.000         0.000         0.000         0.000         0.000
  Initial Stored Mass ......         0.000         0.000         0.000         0.000         0.000
  Final Stored Mass ........       607.444      1024.548        29.899         3.296        17.562
  Continuity Error (%) .....         0.566         0.571         0.183         0.089         0.133
  
  
  *************************
  Highest Continuity Errors
  *************************
  Node HS02004842 (18.73%)
  Node YS02001884 (12.70%)
  Node YSB1171 (3.98%)
  Node HS02004817 (3.48%)
  Node YS02001774 (3.21%)
  
  
  ***************************
  Time-Step Critical Elements
  ***************************
  Link YS02006556YS02006558 (34.20%)
  Link WS02006238WS02006235 (27.69%)
  Link WS02006280WS02006229 (13.19%)
  Link WS02003066WSF200 (10.50%)
  Link YS02001791YS02001793 (3.32%)
  
  
  ********************************
  Highest Flow Instability Indexes
  ********************************
  Link WS02006113WS02006111 (63)
  Link YS02001619YS02001622 (39)
  Link YS02001629YS02163301 (38)
  Link YS02163301YS02001633 (38)
  Link YS02163601YS02164001 (37)
  
  
  *************************
  Routing Time Step Summary
  *************************
  Minimum Time Step           :     0.50 sec
  Average Time Step           :     2.52 sec
  Maximum Time Step           :     5.00 sec
  Percent in Steady State     :     0.00
  Average Iterations per Step :     4.52
  Percent Not Converging      :    24.35
  
  
  ***************************
  Subcatchment Runoff Summary
  ***************************
  
  ------------------------------------------------------------------------------------------------------------------------------
                            Total      Total      Total      Total     Imperv       Perv      Total       Total     Peak  Runoff
                           Precip      Runon       Evap      Infil     Runoff     Runoff     Runoff      Runoff   Runoff   Coeff
  Subcatchment                 mm         mm         mm         mm         mm         mm         mm    10^6 ltr      LPS
  ------------------------------------------------------------------------------------------------------------------------------
  sub0                       8.46       0.00       0.00       0.59       7.82       0.00       7.82        0.01     1.16   0.925
  sub1                       8.46       0.00       0.00       0.93       7.44       0.00       7.44        0.05     7.70   0.880
  sub2                       8.46       0.00       0.00       3.13       5.25       0.00       5.25        0.05     7.52   0.620
  sub3                       8.46       0.00       0.00       3.13       5.21       0.00       5.21        0.12    17.42   0.616
  sub4                       8.46       0.00       0.00       0.93       7.29       0.00       7.29        0.15    21.43   0.862
  sub5                       8.46       0.00       0.00       0.59       7.77       0.00       7.77        0.09    13.72   0.919
  sub7                       8.46       0.00       0.00       0.76       7.64       0.00       7.64        0.03     4.36   0.903
  sub8                       8.46       0.00       0.00       0.76       7.63       0.00       7.63        0.05     7.94   0.902
  sub9                       8.46       0.00       0.00       0.76       7.62       0.00       7.62        0.04     5.92   0.901
  sub10                      8.46       0.00       0.00       0.68       7.70       0.00       7.70        0.08    13.25   0.910
  sub11                      8.46       0.00       0.00       0.68       7.71       0.00       7.71        0.09    14.79   0.912
  sub12                      8.46       0.00       0.00       1.10       7.31       0.00       7.31        0.06    11.39   0.865
  sub14                      8.46       0.00       0.00       0.76       7.62       0.00       7.62        0.07    11.62   0.901
  sub15                      8.46       0.00       0.00       2.54       5.86       0.00       5.86        0.10    15.92   0.693
  sub16                      8.46       0.00       0.00       2.79       5.63       0.00       5.63        0.06    10.32   0.665
  sub17                      8.46       0.00       0.00       2.71       5.71       0.00       5.71        0.05     8.48   0.675
  sub22                      8.46       0.00       0.00       3.64       4.78       0.00       4.78        0.30    50.23   0.565
  sub23                      8.46       0.00       0.00       3.13       5.28       0.00       5.29        0.25    42.38   0.625
  sub60                      8.46       0.00       0.00       1.01       5.86       0.00       5.86        1.78   164.80   0.693
  sub61                      8.46       0.00       0.00       1.44       6.03       0.00       6.03        1.86   190.11   0.712
  sub62                      8.46       0.00       0.00       0.68       6.53       0.00       6.53        2.01   200.02   0.772
  sub63                      8.46       0.00       0.00       2.45       5.29       0.00       5.29        1.60   170.11   0.626
  sub64                      8.46       0.00       0.00       1.27       5.62       0.00       5.62        1.71   157.25   0.664
  sub65                      8.46       0.00       0.00       1.10       5.71       0.00       5.71        1.75   160.29   0.675
  sub66                      8.46       0.00       0.00       2.45       4.84       0.00       4.84        1.48   141.15   0.572
  sub67                      8.46       0.00       0.00       0.68       6.95       0.00       6.95        2.15   235.00   0.822
  sub68                      8.46       0.00       0.00       1.18       6.35       0.00       6.35        1.95   204.33   0.751
  sub69                      8.46       0.00       0.00       1.27       6.64       0.00       6.64        1.55   184.58   0.785
  sub70                      8.46       6.78       0.00       5.12       8.72       0.07       8.79        2.01   196.15   0.577
  sub71                      8.46       0.00       0.00       0.68       6.34       0.00       6.34        1.50   143.90   0.749
  sub72                      8.46       0.00       0.00       0.59       4.90       0.00       4.90        1.00    76.81   0.580
  1                          8.46       8.55       0.00       1.37       9.41       2.10      11.51        2.70   208.46   0.676
  2                          8.46       0.00       0.00       3.02       1.98       0.82       2.80        1.12   115.90   0.331
  
  
  ****************************
  Subcatchment Washoff Summary
  ****************************
  
  ------------------------------------------------------------------------------------------
                                 COD            SS            TN            TP         NH4-N
  Subcatchment                    kg            kg            kg            kg            kg
  ------------------------------------------------------------------------------------------
  sub0                         1.269         2.347         0.021         0.002         0.010
  sub1                         5.368        10.152         0.101         0.007         0.048
  sub2                         3.123         5.706         0.069         0.004         0.031
  sub3                         7.722        13.979         0.167         0.011         0.076
  sub4                        12.451        23.697         0.253         0.015         0.121
  sub5                        12.367        23.084         0.218         0.016         0.105
  sub7                         2.789         5.362         0.053         0.003         0.025
  sub8                         4.236         8.323         0.086         0.005         0.041
  sub9                         3.593         6.962         0.070         0.004         0.034
  sub10                       10.223        19.332         0.187         0.013         0.090
  sub11                       10.038        19.218         0.188         0.013         0.091
  sub12                        8.270        15.515         0.149         0.011         0.071
  sub14                        7.633        14.652         0.146         0.009         0.070
  sub15                        8.991        16.442         0.177         0.013         0.082
  sub16                        5.608        10.223         0.108         0.008         0.050
  sub17                        5.144         9.292         0.096         0.007         0.045
  sub22                       26.265        46.903         0.511         0.038         0.236
  sub23                       16.126        29.920         0.358         0.023         0.162
  sub60                      110.752       195.035         2.286         0.135         1.092
  sub61                      136.872       239.775         2.604         0.173         1.250
  sub62                      144.527       257.978         2.905         0.177         1.390
  sub63                      101.086       174.440         2.111         0.144         0.969
  sub64                      134.770       228.554         2.530         0.180         1.201
  sub65                      138.284       235.567         2.616         0.182         1.245
  sub66                       79.273       135.678         1.706         0.108         0.791
  sub67                      212.964       376.541         3.838         0.276         1.849
  sub68                      152.046       269.323         2.984         0.195         1.419
  sub69                      137.517       246.419         2.625         0.179         1.248
  sub70                      219.731       394.922         4.508         0.304         2.092
  sub71                       96.028       172.929         2.053         0.114         0.979
  sub72                       70.255       117.341         1.348         0.089         0.647
  1                          135.616       245.399         2.861         0.193         1.310
  2                           18.550        31.072         0.575         0.034         0.241
  ------------------------------------------------------------------------------------------
  System                    2039.488      3602.082        40.506         2.685        19.114
  
  
  ******************
  Node Depth Summary
  ******************
  
  ---------------------------------------------------------------------------------
                                 Average  Maximum  Maximum  Time of Max    Reported
                                   Depth    Depth      HGL   Occurrence   Max Depth
  Node                 Type       Meters   Meters   Meters  days hr:min      Meters
  ---------------------------------------------------------------------------------
  WS02001211           JUNCTION     0.69     0.72     5.56     0  02:21        0.72
  WS02001212           JUNCTION     0.41     0.44     5.51     0  02:20        0.44
  WS02001213           JUNCTION     0.63     0.70     5.46     0  02:20        0.70
  WS02003069           JUNCTION     0.43     0.54     5.12     0  02:19        0.54
  WS02003072           JUNCTION     0.49     0.60     4.97     0  02:17        0.60
  WS02003073           JUNCTION     0.29     0.37     4.43     0  02:18        0.37
  WS02003060           JUNCTION     0.38     0.48     5.41     0  02:18        0.48
  WS02003066           JUNCTION     0.20     0.29     5.85     0  02:15        0.29
  WS02003059           JUNCTION     0.68     0.76     5.44     0  02:19        0.76
  WS02003067           JUNCTION     0.50     0.69     6.01     0  02:15        0.69
  WS02004401           JUNCTION     0.60     0.83     6.83     0  02:13        0.83
  WS02004402           JUNCTION     0.63     0.86     6.82     0  02:13        0.86
  WS02004403           JUNCTION     0.65     0.87     6.80     0  02:13        0.87
  WS02004404           JUNCTION     0.72     0.94     6.79     0  02:13        0.94
  WS02004406           JUNCTION     0.73     0.94     6.77     0  02:13        0.94
  WS02004409           JUNCTION     0.43     0.65     6.42     0  02:14        0.65
  WS02004410           JUNCTION     0.44     0.66     6.38     0  02:14        0.66
  WS02004411           JUNCTION     0.46     0.67     6.35     0  02:15        0.67
  WS02004412           JUNCTION     0.47     0.68     6.32     0  02:15        0.68
  WS02004413           JUNCTION     0.62     0.84     6.31     0  02:15        0.84
  WS02004405           JUNCTION     0.72     0.94     6.79     0  02:13        0.94
  WS02006109           JUNCTION     0.69     0.93     7.55     0  02:11        0.93
  WS02006110           JUNCTION     0.69     0.90     7.48     0  02:11        0.90
  WS02006111           JUNCTION     0.19     0.28     6.98     0  02:10        0.28
  WS02006112           JUNCTION     0.77     1.03     6.91     0  02:15        1.02
  WS02006113           JUNCTION     0.30     0.44     7.33     0  02:12        0.44
  WS02006115           JUNCTION     0.50     0.73     6.87     0  02:15        0.73
  WS02006116           JUNCTION     0.57     0.81     6.85     0  02:13        0.81
  WS02006230           JUNCTION     0.64     0.94     7.69     0  02:12        0.94
  WS02006231           JUNCTION     0.39     0.61     7.73     0  02:12        0.61
  WS02006232           JUNCTION     0.50     0.72     7.76     0  02:13        0.72
  WS02006234           JUNCTION     0.41     0.64     7.79     0  02:13        0.64
  WS02006235           JUNCTION     0.43     0.65     7.82     0  02:13        0.65
  WS02006238           JUNCTION     0.45     0.67     7.82     0  02:13        0.67
  WS02006240           JUNCTION     0.33     0.53     7.82     0  02:14        0.53
  WS02006242           JUNCTION     0.35     0.55     7.82     0  02:14        0.55
  WS02006243           JUNCTION     0.23     0.40     7.82     0  02:14        0.40
  WS02006245           JUNCTION     0.18     0.34     7.82     0  02:14        0.34
  WS02006247           JUNCTION     0.18     0.33     7.83     0  02:14        0.33
  WS02006248           JUNCTION     0.11     0.24     7.83     0  02:14        0.24
  WS02006249           JUNCTION     0.12     0.24     7.84     0  02:14        0.24
  WS02006239           JUNCTION     0.40     0.61     7.82     0  02:13        0.61
  WS02006251           JUNCTION     0.09     0.19     7.86     0  02:12        0.19
  WS02006252           JUNCTION     0.00     0.00     8.24     0  00:00        0.00
  WS02006253           JUNCTION     0.13     0.24     7.88     0  02:10        0.24
  WS02006256           JUNCTION     1.74     2.35     9.28     0  01:39        2.35
  WS02004138           JUNCTION     0.16     0.17     7.42     0  04:20        0.17
  WS02004139           JUNCTION     0.63     0.66     5.57     0  02:21        0.66
  WS02004407           JUNCTION     0.19     0.29     6.60     0  02:14        0.29
  WS02006228           JUNCTION     0.69     0.96     7.62     0  02:15        0.96
  WS02006229           JUNCTION     0.66     0.95     7.65     0  02:11        0.95
  WS02006280           JUNCTION     0.08     0.14     8.42     0  02:09        0.14
  WS02006284           JUNCTION     0.38     0.48     8.88     0  02:09        0.48
  WS02006287           JUNCTION     0.11     0.21     9.17     0  02:08        0.21
  WSF200               JUNCTION     0.19     0.30     5.53     0  02:16        0.30
  HS02004901           JUNCTION     0.14     0.23    10.05     0  01:37        0.23
  HS02004881           JUNCTION     0.01     0.02     9.05     0  02:08        0.02
  HS02004876           JUNCTION     0.06     0.10     9.13     0  02:07        0.10
  HS02004870           JUNCTION     0.02     0.04     9.33     0  02:08        0.04
  HS02004862           JUNCTION     0.02     0.05     9.43     0  02:08        0.05
  HS02004856           JUNCTION     0.08     0.11     9.53     0  02:08        0.11
  HS02004852           JUNCTION     0.01     0.03     9.54     0  02:09        0.03
  HS02004848           JUNCTION     0.01     0.03     9.63     0  02:08        0.03
  HS02004842           JUNCTION     0.33     0.36     9.63     0  02:08        0.36
  HS02004837           JUNCTION     0.03     0.05     9.63     0  02:08        0.05
  HS02004830           JUNCTION     0.04     0.06     9.53     0  02:09        0.06
  HS02004824           JUNCTION     0.03     0.04     9.45     0  02:09        0.04
  HS02004817           JUNCTION     0.44     0.53     9.38     0  02:09        0.53
  HS02004807           JUNCTION     0.13     0.21     9.38     0  02:09        0.21
  HS02004802           JUNCTION     0.17     0.24     9.37     0  02:09        0.24
  HS02004799           JUNCTION     0.14     0.25     9.46     0  01:38        0.25
  HS02004792           JUNCTION     0.04     0.10     9.62     0  01:37        0.10
  HS02004788           JUNCTION     0.03     0.07     9.97     0  01:38        0.07
  HS02004785           JUNCTION     0.06     0.13    10.03     0  01:38        0.13
  HS02004777           JUNCTION     0.16     0.25    10.05     0  01:37        0.25
  HS02004770           JUNCTION     0.13     0.22    10.05     0  01:37        0.22
  HS02004480           JUNCTION     0.10     0.20     9.44     0  01:38        0.20
  HS02004479           JUNCTION     0.13     0.23     9.44     0  01:39        0.23
  HS02004478           JUNCTION     0.07     0.13     9.35     0  02:08        0.13
  YS02001745           JUNCTION     0.61     0.88     8.40     0  03:09        0.88
  YS02001748           JUNCTION     0.98     1.33     8.41     0  03:07        1.31
  YS02001751           JUNCTION     1.15     1.71     8.58     0  02:23        1.52
  YS02001754           JUNCTION     1.39     1.84     8.45     0  02:23        1.80
  YS02001762           JUNCTION     1.58     2.04     8.44     0  02:55        2.00
  YS02001765           JUNCTION     1.54     1.98     8.43     0  03:04        1.95
  YS02001767           JUNCTION     1.50     1.93     8.42     0  02:39        1.90
  YS02001770           JUNCTION     1.50     1.95     8.44     0  02:39        1.89
  YS02001774           JUNCTION     1.57     2.00     8.42     0  02:39        1.97
  YS02001779           JUNCTION     1.32     1.68     8.37     0  02:33        1.68
  YS02001882           JUNCTION     0.41     0.64     7.36     0  02:53        0.64
  YS02001884           JUNCTION     0.51     0.74     7.35     0  02:49        0.74
  YS02001759           JUNCTION     1.62     2.07     8.44     0  02:55        2.05
  YS02001887           JUNCTION     0.58     0.82     7.36     0  02:53        0.82
  YS02001890           JUNCTION     0.61     0.85     7.35     0  02:57        0.84
  YS02001898           JUNCTION     0.38     0.60     7.34     0  02:56        0.60
  YS02001901           JUNCTION     0.50     0.73     7.33     0  02:52        0.73
  YS02001904           JUNCTION     0.47     0.70     7.33     0  02:55        0.70
  YS02001907           JUNCTION     0.80     1.05     7.34     0  02:40        1.05
  YS02001910           JUNCTION     0.59     0.83     7.34     0  02:51        0.83
  YS02001915           JUNCTION     0.40     0.61     7.33     0  02:51        0.61
  YS02001918           JUNCTION     0.15     0.26     7.33     0  02:42        0.26
  YS02001619           JUNCTION     1.12     1.61     8.54     0  02:28        1.46
  YS02001629           JUNCTION     1.45     1.85     8.40     0  02:29        1.83
  YS02001641           JUNCTION     1.55     1.93     8.37     0  02:48        1.93
  YS02001644           JUNCTION     1.56     1.92     8.35     0  02:42        1.92
  YS02001652           JUNCTION     1.40     2.13     8.72     0  03:02        1.87
  YS02001655           JUNCTION     1.18     2.20     9.05     0  02:28        1.64
  YS02001920           JUNCTION     0.24     0.34     7.34     0  02:53        0.34
  YS02001923           JUNCTION     0.09     0.13     7.39     0  03:01        0.13
  YS02001926           JUNCTION     0.19     0.24     7.69     0  03:01        0.24
  YS02001929           JUNCTION     0.09     0.13     7.82     0  03:01        0.13
  YS02001658           JUNCTION     0.93     2.30     9.44     0  02:28        1.37
  YS02001661           JUNCTION     0.72     1.62     9.02     0  02:57        1.10
  YS02001664           JUNCTION     0.32     0.57     8.49     0  03:02        0.56
  YS02001622           JUNCTION     1.14     1.58     8.49     0  02:28        1.48
  YS02001633           JUNCTION     1.54     1.94     8.39     0  02:51        1.93
  YS02001649           JUNCTION     1.59     2.05     8.44     0  02:28        2.04
  YS02001757           JUNCTION     1.71     2.19     8.45     0  03:07        2.16
  YS02001895           JUNCTION     0.38     0.60     7.34     0  02:52        0.59
  YS02001625           JUNCTION     1.41     1.78     8.38     0  02:36        1.78
  YS02163301           JUNCTION     1.48     1.88     8.39     0  03:00        1.86
  YS02163601           JUNCTION     1.59     1.99     8.38     0  02:55        1.98
  YS02164001           JUNCTION     1.53     1.92     8.37     0  02:44        1.91
  YS02001647           JUNCTION     1.39     1.82     8.43     0  02:28        1.79
  YSB1154              JUNCTION     0.27     0.38     9.44     0  01:38        0.38
  YSB6556              JUNCTION     0.17     0.27     9.44     0  01:38        0.27
  YSB1174              JUNCTION     0.22     0.33     9.44     0  01:38        0.33
  YSB1171              JUNCTION     0.42     0.54     9.44     0  01:39        0.54
  YS02006553           JUNCTION     0.80     1.06     7.34     0  02:40        1.05
  YS02006561           JUNCTION     0.21     0.37     7.03     0  02:55        0.36
  YS02006556           JUNCTION     0.77     1.03     7.34     0  02:40        1.02
  YS02006558           JUNCTION     0.81     1.08     7.35     0  02:30        1.05
  YS02001783           JUNCTION     0.37     0.63     6.77     0  02:55        0.62
  YS02001784           JUNCTION     0.40     0.63     6.70     0  02:51        0.63
  YS02001786           JUNCTION     0.34     0.53     6.56     0  02:50        0.53
  YS02001788           JUNCTION     0.26     0.42     6.39     0  02:51        0.42
  YS02001790           JUNCTION     0.31     0.50     6.15     0  02:50        0.50
  YS02001791           JUNCTION     0.19     0.37     5.84     0  02:37        0.32
  YS02001793           JUNCTION     0.39     2.05     6.88     0  02:37        1.00
  WSC                  OUTFALL      0.29     0.37     1.04     0  02:19        0.37
  JK-storage           STORAGE      4.23     4.88     5.68     0  02:11        4.88
  CC-storage           STORAGE      0.97     1.39     8.39     0  03:04        1.39
  XR-storage           STORAGE      7.52     7.72     5.72     0  01:58        7.72
  
  
  *******************
  Node Inflow Summary
  *******************
  
  -------------------------------------------------------------------------------------------------
                                  Maximum  Maximum                  Lateral       Total        Flow
                                  Lateral    Total  Time of Max      Inflow      Inflow     Balance
                                   Inflow   Inflow   Occurrence      Volume      Volume       Error
  Node                 Type           LPS      LPS  days hr:min    10^6 ltr    10^6 ltr     Percent
  -------------------------------------------------------------------------------------------------
  WS02001211           JUNCTION      7.35   293.85     0  01:29       0.207        7.57       0.503
  WS02001212           JUNCTION      0.00   294.60     0  05:05           0        7.53       0.257
  WS02001213           JUNCTION      0.00   295.65     0  05:04           0        7.51       0.289
  WS02003069           JUNCTION      0.32   817.97     0  02:19     0.00902        13.8       0.162
  WS02003072           JUNCTION      0.00   817.88     0  02:19           0        13.7       0.211
  WS02003073           JUNCTION      1.82   819.64     0  02:20      0.0514        13.8       0.232
  WS02003060           JUNCTION     16.53   817.77     0  02:18       0.466        13.8       0.155
  WS02003066           JUNCTION      0.00   509.01     0  02:15           0        5.86       0.042
  WS02003059           JUNCTION      0.00   297.75     0  05:04           0         7.5       0.505
  WS02003067           JUNCTION      0.00   508.98     0  02:15           0        5.86       0.098
  WS02004401           JUNCTION      0.00   509.82     0  02:12           0           6       0.212
  WS02004402           JUNCTION      0.00   509.58     0  02:13           0        5.99       0.211
  WS02004403           JUNCTION      0.00   509.60     0  02:12           0        5.97       0.202
  WS02004404           JUNCTION      0.16   509.67     0  02:13     0.00457        5.97       0.184
  WS02004406           JUNCTION      0.00   509.78     0  02:13           0        5.94       0.398
  WS02004409           JUNCTION      0.00   509.49     0  02:14           0        5.92       0.106
  WS02004410           JUNCTION      0.00   509.40     0  02:14           0        5.91       0.143
  WS02004411           JUNCTION      0.00   509.28     0  02:14           0         5.9       0.162
  WS02004412           JUNCTION      0.00   509.18     0  02:15           0        5.89       0.196
  WS02004413           JUNCTION      0.00   509.16     0  02:15           0        5.88       0.325
  WS02004405           JUNCTION      0.04   509.78     0  02:13     0.00107        5.96       0.226
  WS02006109           JUNCTION      1.23   502.33     0  02:11      0.0347        6.01       0.177
  WS02006110           JUNCTION      0.00   502.12     0  02:11           0           6       0.179
  WS02006111           JUNCTION      0.00   520.77     0  02:14           0        5.99       0.015
  WS02006112           JUNCTION      8.48   513.14     0  02:10       0.049        6.04       0.281
  WS02006113           JUNCTION      0.00   502.41     0  02:12           0        5.99       0.048
  WS02006115           JUNCTION      0.00   514.51     0  02:15           0        6.02       0.186
  WS02006116           JUNCTION      0.00   510.18     0  02:12           0        6.01       0.136
  WS02006230           JUNCTION     10.28   296.48     0  02:22        0.29        4.49       0.202
  WS02006231           JUNCTION      0.00   285.62     0  02:22           0        4.21       0.052
  WS02006232           JUNCTION      0.00   285.60     0  02:22           0        4.21       0.268
  WS02006234           JUNCTION      0.00   285.20     0  02:22           0        4.21       0.055
  WS02006235           JUNCTION      0.00   312.17     0  01:40           0        4.52       0.177
  WS02006238           JUNCTION      0.00   218.44     0  01:39           0       0.816       0.528
  WS02006240           JUNCTION      0.00   114.75     0  01:41           0       0.592       0.906
  WS02006242           JUNCTION      0.00    98.79     0  01:41           0       0.472       0.773
  WS02006243           JUNCTION      0.00    55.29     0  01:42           0       0.377       1.065
  WS02006245           JUNCTION      0.00    42.94     0  01:46           0       0.328       1.030
  WS02006247           JUNCTION      0.00    42.96     0  02:10           0         0.3       0.129
  WS02006248           JUNCTION      0.00    43.22     0  02:09           0       0.286       0.001
  WS02006249           JUNCTION      0.00    43.54     0  02:09           0       0.283       0.245
  WS02006239           JUNCTION      0.00   134.06     0  01:40           0       0.713       0.741
  WS02006251           JUNCTION      0.08    43.78     0  02:08     0.00217       0.282      -0.030
  WS02006252           JUNCTION      0.00     0.00     0  00:00           0           0       0.000 ltr
  WS02006253           JUNCTION      1.16    43.76     0  02:08     0.00633        0.28       0.126
  WS02006256           JUNCTION      0.00   983.00     0  01:57           0        6.57      -0.107
  WS02004138           JUNCTION      0.00   285.00     0  01:27           0        7.39       0.053
  WS02004139           JUNCTION      0.32   285.32     0  02:29     0.00905         7.4       0.487
  WS02004407           JUNCTION      0.00   509.58     0  02:13           0        5.92       0.046
  WS02006228           JUNCTION      0.00   501.33     0  02:11           0        5.99       0.145
  WS02006229           JUNCTION      0.00   500.81     0  02:11           0           6       0.164
  WS02006280           JUNCTION      0.00   211.61     0  02:09           0        1.52       0.004
  WS02006284           JUNCTION      0.10   211.60     0  02:09      0.0027        1.52       0.027
  WS02006287           JUNCTION      0.00   211.51     0  02:08           0        1.52       0.048
  WSF200               JUNCTION      0.00   509.04     0  02:16           0        5.85       0.033
  HS02004901           JUNCTION     10.32    10.32     0  01:33      0.0589      0.0592       3.063
  HS02004881           JUNCTION      4.36    42.78     0  02:08      0.0257       0.274       0.023
  HS02004876           JUNCTION      7.70    38.75     0  02:08      0.0495       0.249       0.215
  HS02004870           JUNCTION      7.94    31.07     0  02:08      0.0487       0.199       0.054
  HS02004862           JUNCTION      7.72    23.49     0  02:08      0.0545       0.151       0.113
  HS02004856           JUNCTION      5.92    15.80     0  02:08      0.0367      0.0975       1.492
  HS02004852           JUNCTION      0.00    10.11     0  02:08           0      0.0609       0.087
  HS02004848           JUNCTION     17.42    17.42     0  02:08       0.117       0.117       0.037
  HS02004842           JUNCTION      0.00     7.32     0  02:10           0      0.0694      23.040
  HS02004837           JUNCTION     19.60    26.85     0  02:08       0.264        0.32       0.245
  HS02004830           JUNCTION      0.15    26.99     0  02:08     0.00423       0.311       0.398
  HS02004824           JUNCTION     21.48    48.47     0  02:09       0.154       0.463       0.116
  HS02004817           JUNCTION      0.60    49.06     0  02:09      0.0169        0.48       3.602
  HS02004807           JUNCTION     14.79    62.91     0  02:09      0.0896       0.553       0.795
  HS02004802           JUNCTION      0.00    62.92     0  02:10           0       0.552       0.719
  HS02004799           JUNCTION     11.62   130.75     0  01:37      0.0725       0.835       0.346
  HS02004792           JUNCTION     50.51   119.20     0  01:37        0.31       0.763       0.053
  HS02004788           JUNCTION     17.59    69.40     0  01:38       0.148       0.454       0.084
  HS02004785           JUNCTION      0.15    51.92     0  01:37     0.00423       0.307       0.159
  HS02004777           JUNCTION      0.03    52.01     0  01:35    0.000846       0.308       1.716
  HS02004770           JUNCTION     42.38    52.42     0  01:35       0.252       0.309       1.006
  HS02004480           JUNCTION      0.00   154.75     0  01:38           0       0.983       0.097
  HS02004479           JUNCTION      0.00    24.23     0  01:40           0        0.16       0.458
  HS02004478           JUNCTION      0.00   211.50     0  02:08           0        1.52       0.023
  YS02001745           JUNCTION    164.81   247.75     0  02:22        1.78        1.78       0.647
  YS02001748           JUNCTION      0.04   363.09     0  02:26     0.00127        1.77       1.292
  YS02001751           JUNCTION      0.01   316.30     0  02:23     0.00031        1.74       1.329
  YS02001754           JUNCTION      0.26   210.20     0  02:19     0.00733        1.73       1.475
  YS02001762           JUNCTION      0.00   216.85     0  02:33           0        1.47       1.489
  YS02001765           JUNCTION      0.00   213.57     0  02:33           0        1.47       1.683
  YS02001767           JUNCTION      0.54   210.80     0  02:33      0.0151        1.49       2.459
  YS02001770           JUNCTION    200.17   302.72     0  03:09        2.01        2.15       1.510
  YS02001774           JUNCTION      0.00   304.50     0  03:09           0       0.786       3.319
  YS02001779           JUNCTION      0.01   305.69     0  03:09    0.000141       0.756       2.071
  YS02001882           JUNCTION      0.00    10.68     0  03:09           0       0.014      16.580
  YS02001884           JUNCTION      0.00    13.94     0  02:12           0      0.0435      14.551
  YS02001759           JUNCTION    190.15   406.97     0  02:33        1.86        3.16       0.720
  YS02001887           JUNCTION    235.45   246.69     0  02:32        2.16        2.18       0.360
  YS02001890           JUNCTION      0.00   244.20     0  02:42           0        2.14       0.402
  YS02001898           JUNCTION      0.00   243.92     0  02:32           0        2.13       0.120
  YS02001901           JUNCTION      0.00   251.68     0  02:33           0        2.13       0.298
  YS02001904           JUNCTION      0.00   245.91     0  02:32           0        2.13       0.271
  YS02001907           JUNCTION      0.00   469.55     0  02:50           0        4.68       0.498
  YS02001910           JUNCTION      0.00   237.70     0  02:54           0        2.56       0.431
  YS02001915           JUNCTION    143.92   227.36     0  02:53         1.5        2.57       0.208
  YS02001918           JUNCTION      0.00    82.70     0  02:59           0        1.08       0.149
  YS02001619           JUNCTION    141.15   141.15     0  02:54        1.48        1.48       0.824
  YS02001629           JUNCTION      0.00   173.54     0  02:18           0         1.4       2.084
  YS02001641           JUNCTION      0.00   315.95     0  02:29           0        3.06       0.694
  YS02001644           JUNCTION    157.29   907.20     0  03:06        1.71        8.28       0.310
  YS02001652           JUNCTION      0.00   244.56     0  02:28           0        1.55       1.552
  YS02001655           JUNCTION      0.15   306.76     0  02:19     0.00434        1.57       1.592
  YS02001920           JUNCTION      2.87    79.72     0  03:01      0.0809        1.08       0.242
  YS02001923           JUNCTION      0.04    76.85     0  03:01     0.00106       0.998       0.044
  YS02001926           JUNCTION      0.05    76.85     0  03:01     0.00147       0.999       0.299
  YS02001929           JUNCTION     76.81    76.81     0  03:01       0.998       0.998       0.043
  YS02001658           JUNCTION      0.00   560.08     0  02:28           0        1.61       1.330
  YS02001661           JUNCTION      0.00   499.84     0  02:56           0        1.67       0.342
  YS02001664           JUNCTION    170.11   319.62     0  02:56         1.6        1.66       0.348
  YS02001622           JUNCTION      0.00   150.77     0  02:19           0        1.47       2.206
  YS02001633           JUNCTION    160.49   313.86     0  02:29        1.76        3.12       1.041
  YS02001649           JUNCTION      0.00   652.26     0  02:28           0        5.49       0.684
  YS02001757           JUNCTION      0.00  1142.71     0  02:43           0        6.72       1.385
  YS02001895           JUNCTION      0.00   246.45     0  02:32           0        2.13       0.215
  YS02001625           JUNCTION      0.00   173.88     0  02:18           0        1.44       2.774
  YS02163301           JUNCTION      0.00   166.68     0  02:25           0        1.38       1.775
  YS02163601           JUNCTION      0.11   314.35     0  02:29      0.0031        3.08       0.987
  YS02164001           JUNCTION      0.00   314.78     0  02:29           0        3.06       0.662
  YS02001647           JUNCTION      0.00   486.32     0  03:09           0        4.88       0.576
  YSB1154              JUNCTION     13.72    13.72     0  02:07       0.088      0.0887       1.656
  YSB6556              JUNCTION      0.00    13.71     0  02:07           0      0.0895       1.417
  YSB1174              JUNCTION     11.39    11.39     0  01:33      0.0639      0.0643       2.034
  YSB1171              JUNCTION      0.00    24.39     0  01:39           0       0.159       4.141
  YS02006553           JUNCTION      0.00   467.58     0  02:50           0        4.67       0.327
  YS02006561           JUNCTION      0.00   697.21     0  02:50           0        6.59       0.020
  YS02006556           JUNCTION      0.00   464.57     0  02:41           0        4.68       0.229
  YS02006558           JUNCTION    205.21   689.45     0  02:55        1.98        6.62       0.059
  YS02001783           JUNCTION      0.00   678.20     0  02:55           0        6.59       0.030
  YS02001784           JUNCTION      1.06   670.59     0  02:55      0.0299        6.62       0.047
  YS02001786           JUNCTION      0.06   666.11     0  02:50     0.00159        6.62       0.046
  YS02001788           JUNCTION      0.07   665.50     0  02:50       0.002        6.62       0.027
  YS02001790           JUNCTION      0.15   665.24     0  02:51     0.00437        6.62       0.033
  YS02001791           JUNCTION      0.00   680.36     0  02:44           0        6.62       0.015
  YS02001793           JUNCTION      0.00   857.28     0  01:53           0        6.69      -0.161
  WSC                  OUTFALL       0.00   819.61     0  02:19           0        13.7       0.000
  JK-storage           STORAGE       0.00  1092.23     0  02:37           0        6.85       0.060
  CC-storage           STORAGE       0.00  1150.60     0  02:28           0        3.97       1.665
  XR-storage           STORAGE     515.95   515.95     0  02:56        9.46        10.1      -0.003
  
  
  **********************
  Node Surcharge Summary
  **********************
  
  Surcharging occurs when water rises above the top of the highest conduit.
  ---------------------------------------------------------------------
                                               Max. Height   Min. Depth
                                   Hours       Above Crown    Below Rim
  Node                 Type      Surcharged         Meters       Meters
  ---------------------------------------------------------------------
  WS02006109           JUNCTION        1.41          0.113        1.707
  WS02006112           JUNCTION        0.54          0.030        1.650
  WS02006232           JUNCTION        0.58          0.023        1.457
  WS02006256           JUNCTION        6.30          2.050        0.000
  WS02006228           JUNCTION        1.39          0.134        2.066
  YS02001748           JUNCTION        5.21          0.250        0.940
  YS02001751           JUNCTION        5.44          0.705        0.495
  YS02001754           JUNCTION        5.75          0.793        0.357
  YS02001762           JUNCTION        5.97          1.035        0.115
  YS02001765           JUNCTION        5.93          0.981        0.119
  YS02001767           JUNCTION        5.90          0.934        0.096
  YS02001770           JUNCTION        5.89          0.916        0.004
  YS02001774           JUNCTION        5.96          0.999        0.051
  YS02001779           JUNCTION        5.73          0.680        0.000
  YS02001759           JUNCTION        5.99          1.075        0.135
  YS02001907           JUNCTION        0.94          0.042        0.908
  YS02001619           JUNCTION        5.42          0.610        0.000
  YS02001629           JUNCTION        5.43          0.470        0.000
  YS02001641           JUNCTION        5.94          0.933        0.167
  YS02001644           JUNCTION        5.95          0.920        0.000
  YS02001652           JUNCTION        5.80          1.095        0.035
  YS02001655           JUNCTION        5.50          1.200        0.000
  YS02001658           JUNCTION        5.24          1.300        0.000
  YS02001661           JUNCTION        0.05          0.548        0.842
  YS02001622           JUNCTION        5.48          0.585        0.035
  YS02001633           JUNCTION        5.92          0.917        0.143
  YS02001649           JUNCTION        5.97          1.050        0.000
  YS02001757           JUNCTION        6.08          1.188        0.022
  YS02001625           JUNCTION        5.84          0.780        0.000
  YS02163301           JUNCTION        5.90          0.875        0.155
  YS02163601           JUNCTION        5.97          0.986        0.094
  YS02164001           JUNCTION        5.93          0.917        0.183
  YS02001647           JUNCTION        5.82          0.815        0.085
  YS02006553           JUNCTION        1.09          0.057        1.133
  YS02001793           JUNCTION        0.01          1.048        1.552
  
  
  *********************
  Node Flooding Summary
  *********************
  
  Flooding refers to all water that overflows a node, whether it ponds or not.
  --------------------------------------------------------------------------
                                                             Total   Maximum
                                 Maximum   Time of Max       Flood    Ponded
                        Hours       Rate    Occurrence      Volume     Depth
  Node                 Flooded       LPS   days hr:min    10^6 ltr    Meters
  --------------------------------------------------------------------------
  WS02006256              4.42    743.87      0  02:14       2.614     0.000
  YS02001779              1.95    305.31      0  03:09       0.736     0.000
  YS02001619              0.01     15.76      0  02:28       0.000     0.000
  YS02001629              0.01      8.97      0  02:29       0.000     0.000
  YS02001644              5.12    906.89      0  03:06       6.898     0.000
  YS02001655              0.01     37.54      0  02:28       0.000     0.000
  YS02001658              0.01    175.75      0  02:28       0.000     0.000
  YS02001649              0.01     37.86      0  03:02       0.000     0.000
  YS02001625              0.05      6.23      0  02:38       0.000     0.000
  XR-storage              4.75    230.95      0  02:56       1.793     0.000
  
  
  **********************
  Storage Volume Summary
  **********************
  
  --------------------------------------------------------------------------------------------------
                         Average     Avg  Evap Exfil       Maximum     Max    Time of Max    Maximum
                          Volume    Pcnt  Pcnt  Pcnt        Volume    Pcnt     Occurrence    Outflow
  Storage Unit           1000 m3    Full  Loss  Loss       1000 m3    Full    days hr:min        LPS
  --------------------------------------------------------------------------------------------------
  JK-storage               0.213      73     0     0         0.245      84       0  02:11     983.00
  CC-storage               2.714      17     0     0         3.886      25       0  03:04     135.35
  XR-storage               0.902      97     0     0         0.926     100       0  01:58     285.00
  
  
  ***********************
  Outfall Loading Summary
  ***********************
  
  ---------------------------------------------------------------------------------------------------------------------------------
                         Flow       Avg       Max       Total         Total         Total         Total         Total         Total
                         Freq      Flow      Flow      Volume           COD            SS            TN            TP         NH4-N
  Outfall Node           Pcnt       LPS       LPS    10^6 ltr            kg            kg            kg            kg            kg
  ---------------------------------------------------------------------------------------------------------------------------------
  WSC                   99.99    566.44    819.61      13.728      1786.793      2961.419       131.010        15.755        80.236
  ---------------------------------------------------------------------------------------------------------------------------------
  System                99.99    566.44    819.61      13.728      1786.793      2961.419       131.010        15.755        80.236
  
  
  ********************
  Link Flow Summary
  ********************
  
  -----------------------------------------------------------------------------
                                 Maximum  Time of Max   Maximum    Max/    Max/
                                  |Flow|   Occurrence   |Veloc|    Full    Full
  Link                 Type          LPS  days hr:min     m/sec    Flow   Depth
  -----------------------------------------------------------------------------
  WS02003066WSF200     CONDUIT    509.04     0  02:16      2.69    0.09    0.22
  WS02006287WS02006284 CONDUIT    211.51     0  02:09      1.64    0.10    0.22
  WS02006284WS02006280 CONDUIT    211.61     0  02:09      1.88    0.09    0.20
  WS02006280WS02006229 CONDUIT    211.61     0  02:09      3.02    0.05    0.14
  WS02006229WS02006228 CONDUIT    501.33     0  02:11      1.00    1.66    1.00
  WS02006256WS02006235 CONDUIT    287.76     0  07:47      4.18    3.05    1.00
  WS02006253WS02006251 CONDUIT     43.70     0  02:08      0.50    0.13    0.30
  WS02006252WS02006251 CONDUIT      0.00     0  00:00      0.00    0.00    0.00
  WS02006251WS02006249 CONDUIT     43.54     0  02:09      0.55    0.13    0.31
  WS02006249WS02006248 CONDUIT     43.22     0  02:09      0.65    0.24    0.33
  WS02006248WS02006247 CONDUIT     42.96     0  02:10      0.63    0.09    0.40
  WS02006247WS02006245 CONDUIT     42.94     0  01:46      0.57    0.34    0.47
  WS02006245WS02006243 CONDUIT     43.70     0  01:42      0.71    0.13    0.52
  WS02006243WS02006242 CONDUIT     58.14     0  04:52      0.56    0.12    0.66
  WS02006242WS02006240 CONDUIT     80.06     0  04:51      0.70    0.32    0.76
  WS02006240WS02006239 CONDUIT    102.03     0  04:51      0.75    0.32    0.78
  WS02006239WS02006238 CONDUIT    127.72     0  04:50      0.85    0.41    0.90
  WS02006238WS02006235 CONDUIT    189.00     0  05:57      1.16    0.42    0.95
  WS02006235WS02006234 CONDUIT    285.20     0  02:22      1.12    3.01    0.90
  WS02006234WS02006232 CONDUIT    285.60     0  02:22      0.94    0.58    0.95
  WS02006232WS02006231 CONDUIT    285.62     0  02:22      0.86    0.60    0.93
  WS02006231WS02006230 CONDUIT    286.21     0  02:22      1.21    4.34    0.84
  WS02006230WS02006229 CONDUIT    297.13     0  02:21      0.77    6.61    1.00
  WS02006228WS02006109 CONDUIT    501.10     0  02:11      1.00    2.19    1.00
  WS02006116WS02004401 CONDUIT    509.82     0  02:12      0.74    0.70    0.82
  WS02006115WS02006116 CONDUIT    510.18     0  02:12      0.94    0.65    0.74
  WS02006113WS02006111 CONDUIT    520.77     0  02:14      2.40    0.62    0.45
  WS02006112WS02006115 CONDUIT    514.51     0  02:15      0.72    0.30    0.86
  WS02006111WS02006112 CONDUIT    505.75     0  02:10      1.42    0.24    0.67
  WS02006110WS02006113 CONDUIT    502.41     0  02:12      1.20    0.46    0.77
  WS02006109WS02006110 CONDUIT    502.12     0  02:11      1.00    0.97    0.99
  WS02004411WS02004412 CONDUIT    509.18     0  02:15      0.92    0.72    0.68
  WS02004401WS02004402 CONDUIT    509.58     0  02:13      0.72    0.61    0.84
  WS02004413WS02003067 CONDUIT    508.98     0  02:15      1.08    0.22    0.58
  WS02004412WS02004413 CONDUIT    509.16     0  02:15      0.90    0.34    0.76
  WS02004410WS02004411 CONDUIT    509.28     0  02:14      0.91    0.70    0.67
  WS02004409WS02004410 CONDUIT    509.40     0  02:14      0.93    0.66    0.66
  WS02004407WS02004409 CONDUIT    509.49     0  02:14      1.43    0.18    0.47
  WS02004406WS02004407 CONDUIT    509.58     0  02:13      1.01    0.23    0.61
  WS02004405WS02004406 CONDUIT    509.78     0  02:13      0.67    1.01    0.94
  WS02004404WS02004405 CONDUIT    509.74     0  02:13      0.66    4.99    0.94
  WS02004403WS02004404 CONDUIT    509.51     0  02:13      0.68    0.37    0.91
  WS02004402WS02004403 CONDUIT    509.60     0  02:12      0.71    0.73    0.86
  WS02004139WS02001211 CONDUIT    286.50     0  01:29      0.54    0.36    0.53
  WS02004138WS02004139 CONDUIT    285.00     0  02:29      2.39    0.06    0.39
  WS02003067WS02003066 CONDUIT    509.01     0  02:15      1.17    0.16    0.41
  WS02001213WS02003059 CONDUIT    297.75     0  05:04      0.59    0.49    0.72
  WS02001212WS02001213 CONDUIT    295.65     0  05:04      1.19    0.46    0.41
  WS02001211WS02001212 CONDUIT    294.60     0  05:05      0.67    0.23    0.58
  WS02003072WS02003073 CONDUIT    817.82     0  02:20      1.64    1.77    0.45
  WS02003069WS02003072 CONDUIT    817.88     0  02:19      1.55    0.39    0.47
  WS02003060WS02003069 CONDUIT    817.65     0  02:19      1.80    0.32    0.42
  WS02003059WS02003060 CONDUIT    300.79     0  05:03      0.82    0.20    0.62
  HS02004901HS02004770 CONDUIT     10.06     0  01:36      0.07    0.04    0.32
  HS02004876HS02004881 CONDUIT     38.77     0  02:08      0.61    0.41    0.09
  HS02004870HS02004876 CONDUIT     31.06     0  02:08      0.43    0.02    0.10
  HS02004842HS02004848 CONDUIT      7.32     0  02:10      0.04    0.00    0.28
  HS02004837HS02004842 CONDUIT      7.42     0  02:12      0.42    0.00    0.29
  HS02004830HS02004837 CONDUIT     26.84     0  02:08      0.47    0.03    0.08
  HS02004824HS02004830 CONDUIT     26.99     0  02:09      0.49    0.04    0.08
  HS02004817HS02004824 CONDUIT     48.46     0  02:09      0.17    0.02    0.41
  HS02004770HS02004777 CONDUIT     51.98     0  01:35      0.24    0.10    0.33
  HS02004799HS02004480 CONDUIT    130.65     0  01:37      0.59    0.17    0.31
  HS02004792HS02004799 CONDUIT    119.17     0  01:37      0.68    0.07    0.25
  HS02004788HS02004792 CONDUIT     69.38     0  01:38      0.83    0.05    0.12
  HS02004785HS02004788 CONDUIT     51.88     0  01:38      0.51    0.39    0.14
  HS02004777HS02004785 CONDUIT     51.77     0  01:37      0.27    0.06    0.27
  HS02004480HS02004478 CONDUIT    154.63     0  01:38      0.96    0.65    0.23
  HS02004479HS02004480 CONDUIT     24.36     0  01:40      0.35    0.02    0.31
  HS02004862HS02004870 CONDUIT     23.48     0  02:08      0.50    0.03    0.07
  HS02004848HS02004852 CONDUIT     10.11     0  02:08      0.34    0.01    0.04
  HS02004856HS02004862 CONDUIT     15.79     0  02:08      0.36    0.02    0.06
  HS02004852HS02004856 CONDUIT     10.10     0  02:09      0.15    0.01    0.10
  HS02004802HS02004478 CONDUIT     63.02     0  02:11      0.35    0.06    0.26
  HS02004478WS02006287 CONDUIT    211.51     0  02:08      1.33    0.06    0.18
  HS02004817HS02004807 CONDUIT     49.16     0  02:11      0.13    0.03    0.53
  HS02004807HS02004802 CONDUIT     62.92     0  02:10      0.29    0.12    0.31
  YS02001759YS02001757 CONDUIT    409.19     0  02:33      0.52    0.29    1.00
  YS02001762YS02001759 CONDUIT    220.02     0  02:33      0.28    0.25    1.00
  YS02001765YS02001762 CONDUIT    216.85     0  02:33      0.31    0.20    1.00
  YS02001770YS02001767 CONDUIT    210.26     0  02:33      0.39    0.83    1.00
  YS02001774YS02001770 CONDUIT    304.50     0  03:09      0.39    0.19    1.00
  YS02001779YS02001774 CONDUIT    305.69     0  03:09      0.39    0.15    1.00
  YS02001649YS02001757 CONDUIT    652.75     0  02:28      0.83    0.40    1.00
  YS02001767YS02001765 CONDUIT    213.57     0  02:33      0.38    0.27    1.00
  YS02006561YS02001783 CONDUIT    678.20     0  02:55      2.12    0.35    0.61
  YS02001783YS02001784 CONDUIT    669.53     0  02:55      1.59    0.92    0.79
  YS02001784YS02001785 CONDUIT    666.06     0  02:50      1.71    1.55    0.73
  YS02001788YS02001790 CONDUIT    665.08     0  02:51      2.23    0.49    0.57
  YS02001790YS02001791 CONDUIT    680.36     0  02:44      2.73    0.74    0.54
  YS02001791YS02001793 CONDUIT    778.82     0  02:37      4.48    0.33    0.73
  YS02001910YS02001907 CONDUIT    234.23     0  02:57      0.49    0.13    0.91
  YS02001786YS02001788 CONDUIT    665.43     0  02:50      2.15    1.28    0.59
  YS02001915YS02001910 CONDUIT    237.70     0  02:54      0.62    0.12    0.72
  YS02001918YS02001915 CONDUIT     89.30     0  03:09      0.44    0.05    0.44
  YS02001923YS02001920 CONDUIT     76.85     0  03:01      0.61    0.03    0.23
  YS02001926YS02001923 CONDUIT     76.81     0  03:01      0.70    0.11    0.20
  YS02001929YS02001926 CONDUIT     76.80     0  03:01      0.75    0.04    0.19
  YS02001920YS02001918 CONDUIT     82.70     0  02:59      0.61    0.08    0.30
  YS02001629YS02163301 CONDUIT    166.68     0  02:25      0.21    0.21    1.00
  YS02001619YS02001622 CONDUIT    150.77     0  02:19      0.64    0.22    1.00
  YS02001622YS02001625 CONDUIT    173.88     0  02:18      0.42    0.09    1.00
  YS02001625YS02001629 CONDUIT    173.54     0  02:18      0.25    0.08    1.00
  YS02163301YS02001633 CONDUIT    166.87     0  02:28      0.21    0.16    1.00
  YS02163601YS02164001 CONDUIT    314.78     0  02:29      0.40    0.28    1.00
  YS02164001YS02001641 CONDUIT    315.95     0  02:29      0.40    0.43    1.00
  YS02001641YS02001644 CONDUIT    316.82     0  02:29      0.40    1.02    1.00
  YS02001647YS02001649 CONDUIT    486.32     0  03:09      0.62    0.26    1.00
  YS02006553YS02006556 CONDUIT    464.57     0  02:41      0.60    0.40    0.99
  YS02006556YS02006558 CONDUIT    485.30     0  02:55      0.62    0.38    1.00
  YSB6556YSB1171       CONDUIT     13.72     0  02:08      0.09    0.01    0.58
  YS02001907YS02006553 CONDUIT    467.58     0  02:50      0.52    0.55    1.00
  YS02006558YS02006561 CONDUIT    697.21     0  02:50      3.13    1.54    0.75
  YS02001633YS02163601 CONDUIT    314.24     0  02:29      0.40    0.33    1.00
  YS02001644YS02001647 CONDUIT    487.75     0  03:09      0.62    0.29    1.00
  YS02001745YS02001748 CONDUIT    363.04     0  02:26      1.46    0.14    0.94
  YS02001748YS02001751 CONDUIT    316.29     0  02:23      1.10    0.16    1.00
  YS02001751YS02001754 CONDUIT    209.94     0  02:19      0.95    0.10    1.00
  YS02001754YS02001757 CONDUIT    212.41     0  02:19      0.33    0.09    1.00
  YS02001882YS02001884 CONDUIT     13.30     0  03:10      0.15    0.02    0.66
  YS02001884YS02001887 CONDUIT     16.05     0  03:10      0.11    0.02    0.75
  YS02001890YS02001895 CONDUIT    246.45     0  02:32      0.41    0.11    0.72
  YS02001895YS02001898 CONDUIT    243.92     0  02:32      0.55    0.42    0.58
  YS02001898YS02001901 CONDUIT    251.68     0  02:33      0.46    0.16    0.66
  YS02001901YS02001904 CONDUIT    245.91     0  02:32      0.42    0.38    0.71
  YS02001904YS02001907 CONDUIT    252.05     0  02:44      0.36    0.09    0.85
  YS02001887YS02001890 CONDUIT    244.20     0  02:42      0.36    0.42    0.81
  YS02001652YS02001649 CONDUIT    243.24     0  02:28      0.68    0.12    1.00
  YS02001655YS02001652 CONDUIT    244.56     0  02:28      1.03    0.12    1.00
  YS02001658YS02001655 CONDUIT    306.61     0  02:19      1.27    0.13    1.00
  YS02001661YS02001658 CONDUIT    560.08     0  02:28      1.55    0.22    1.00
  YS02001664YS02001661 CONDUIT    499.84     0  02:56      1.40    0.16    0.72
  YSB1154YSB6556       CONDUIT     13.71     0  02:07      0.16    0.02    0.47
  YSB1174YSB1171       CONDUIT     11.35     0  01:35      0.06    0.02    0.58
  YSB1171HS02004479    CONDUIT     24.23     0  01:40      0.54    0.02    0.45
  HS02004881HS02006253 CONDUIT     42.78     0  02:08      1.73    0.01    0.04
  YS02001793JiankangQianchi CONDUIT   1092.23     0  02:37      1.81    0.09    1.00
  YS02001757CaochengTiaoxuchi CONDUIT   1150.60     0  02:28      1.58    0.51    1.00
  WSF200WS02003060     CONDUIT    509.09     0  02:16      1.61    0.11    0.32
  1                    CONDUIT    819.61     0  02:19      3.15    0.29    0.37
  CC-Pump-1            PUMP         0.00     0  00:00              0.00
  CC-Pump-2            PUMP         0.00     0  00:00              0.00
  JK-Pump-1            PUMP       300.00     0  01:39              1.00
  JK-Pump-2            PUMP       683.00     0  01:57              1.00
  XR-Pump-1            PUMP        95.00     0  00:00              1.00
  XR-Pump-2            PUMP        95.00     0  00:25              1.00
  XR-Pump-3            PUMP        95.00     0  01:27              1.00
  XR-Pump-4            PUMP         0.00     0  00:00              0.00
  
  
  ***************************
  Flow Classification Summary
  ***************************
  
  -------------------------------------------------------------------------------------
                      Adjusted    ---------- Fraction of Time in Flow Class ---------- 
                       /Actual         Up    Down  Sub   Sup   Up    Down  Norm  Inlet 
  Conduit               Length    Dry  Dry   Dry   Crit  Crit  Crit  Crit  Ltd   Ctrl  
  -------------------------------------------------------------------------------------
  WS02003066WSF200        1.00   0.15  0.00  0.00  0.00  0.85  0.00  0.00  0.67  0.00
  WS02006287WS02006284    1.00   0.05  0.03  0.00  0.40  0.52  0.00  0.00  0.73  0.00
  WS02006284WS02006280    1.00   0.07  0.00  0.00  0.00  0.00  0.00  0.93  0.00  0.00
  WS02006280WS02006229    1.00   0.07  0.00  0.00  0.00  0.00  0.00  0.93  0.00  0.00
  WS02006229WS02006228    1.00   0.00  0.00  0.00  0.99  0.00  0.00  0.00  0.00  0.00
  WS02006256WS02006235    1.00   0.10  0.00  0.00  0.89  0.01  0.00  0.00  0.01  0.00
  WS02006253WS02006251    1.00   0.02  0.03  0.00  0.93  0.00  0.01  0.00  0.00  0.00
  WS02006252WS02006251    1.00   1.00  0.00  0.00  0.00  0.00  0.00  0.00  0.00  0.00
  WS02006251WS02006249    1.00   0.00  0.00  0.00  1.00  0.00  0.00  0.00  0.77  0.00
  WS02006249WS02006248    1.00   0.00  0.01  0.00  0.66  0.00  0.33  0.00  0.00  0.00
  WS02006248WS02006247    1.00   0.01  0.00  0.00  0.96  0.00  0.00  0.03  0.36  0.00
  WS02006247WS02006245    1.00   0.01  0.00  0.00  0.94  0.00  0.00  0.05  0.00  0.00
  WS02006245WS02006243    1.00   0.02  0.00  0.00  0.90  0.00  0.00  0.08  0.01  0.00
  WS02006243WS02006242    1.00   0.02  0.00  0.00  0.91  0.00  0.00  0.07  0.24  0.00
  WS02006242WS02006240    1.00   0.03  0.06  0.00  0.90  0.00  0.01  0.00  0.00  0.00
  WS02006240WS02006239    1.00   0.09  0.00  0.00  0.88  0.00  0.00  0.04  0.03  0.00
  WS02006239WS02006238    1.00   0.09  0.00  0.00  0.90  0.00  0.00  0.01  0.00  0.00
  WS02006238WS02006235    1.00   0.09  0.01  0.00  0.90  0.00  0.00  0.00  0.00  0.00
  WS02006235WS02006234    1.00   0.10  0.00  0.00  0.87  0.00  0.02  0.00  0.00  0.00
  WS02006234WS02006232    1.00   0.10  0.00  0.00  0.90  0.00  0.00  0.00  0.01  0.00
  WS02006232WS02006231    1.00   0.10  0.00  0.00  0.89  0.00  0.00  0.00  0.00  0.00
  WS02006231WS02006230    1.00   0.10  0.00  0.00  0.48  0.00  0.43  0.00  0.00  0.00
  WS02006230WS02006229    1.00   0.00  0.00  0.00  0.98  0.00  0.00  0.02  0.01  0.00
  WS02006228WS02006109    1.00   0.00  0.00  0.00  1.00  0.00  0.00  0.00  0.01  0.00
  WS02006116WS02004401    1.00   0.06  0.00  0.00  0.94  0.00  0.00  0.00  0.00  0.00
  WS02006115WS02006116    1.00   0.06  0.00  0.00  0.90  0.00  0.00  0.05  0.00  0.00
  WS02006113WS02006111    1.00   0.03  0.00  0.00  0.02  0.95  0.00  0.00  0.31  0.00
  WS02006112WS02006115    1.00   0.04  0.02  0.00  0.94  0.00  0.00  0.00  0.00  0.00
  WS02006111WS02006112    1.00   0.04  0.00  0.00  0.96  0.00  0.00  0.00  0.92  0.00
  WS02006110WS02006113    1.00   0.01  0.03  0.00  0.97  0.00  0.00  0.00  0.00  0.00
  WS02006109WS02006110    1.00   0.00  0.01  0.00  0.99  0.00  0.01  0.00  0.00  0.00
  WS02004411WS02004412    1.00   0.12  0.00  0.00  0.88  0.00  0.00  0.00  0.00  0.00
  WS02004401WS02004402    1.00   0.06  0.00  0.00  0.94  0.00  0.00  0.00  0.04  0.00
  WS02004413WS02003067    1.00   0.12  0.01  0.00  0.00  0.00  0.86  0.00  0.00  0.00
  WS02004412WS02004413    1.00   0.12  0.00  0.00  0.88  0.00  0.00  0.00  0.00  0.00
  WS02004410WS02004411    1.00   0.12  0.00  0.00  0.88  0.00  0.00  0.00  0.00  0.00
  WS02004409WS02004410    1.00   0.11  0.00  0.00  0.89  0.00  0.00  0.00  0.00  0.00
  WS02004407WS02004409    1.00   0.11  0.00  0.00  0.87  0.01  0.00  0.00  0.80  0.00
  WS02004406WS02004407    1.00   0.00  0.11  0.00  0.89  0.00  0.00  0.00  0.00  0.00
  WS02004405WS02004406    1.00   0.00  0.00  0.00  1.00  0.00  0.00  0.00  0.04  0.00
  WS02004404WS02004405    1.00   0.00  0.00  0.00  1.00  0.00  0.00  0.00  0.02  0.00
  WS02004403WS02004404    1.00   0.00  0.06  0.00  0.94  0.00  0.00  0.00  0.04  0.00
  WS02004402WS02004403    1.00   0.06  0.00  0.00  0.94  0.00  0.00  0.00  0.00  0.00
  WS02004139WS02001211    1.00   0.00  0.00  0.00  1.00  0.00  0.00  0.00  0.00  0.00
  WS02004138WS02004139    1.00   0.00  0.00  0.00  0.99  0.00  0.00  0.00  1.00  0.00
  WS02003067WS02003066    1.00   0.14  0.01  0.00  0.86  0.00  0.00  0.00  0.00  0.00
  WS02001213WS02003059    1.00   0.00  0.00  0.00  1.00  0.00  0.00  0.00  0.00  0.00
  WS02001212WS02001213    1.00   0.00  0.00  0.00  0.63  0.00  0.37  0.00  0.00  0.00
  WS02001211WS02001212    1.00   0.00  0.00  0.00  1.00  0.00  0.00  0.00  0.00  0.00
  WS02003072WS02003073    1.00   0.00  0.00  0.00  0.00  0.00  0.00  1.00  0.00  0.00
  WS02003069WS02003072    1.00   0.00  0.00  0.00  1.00  0.00  0.00  0.00  0.21  0.00
  WS02003060WS02003069    1.00   0.00  0.00  0.00  0.99  0.01  0.00  0.00  0.15  0.00
  WS02003059WS02003060    1.00   0.00  0.00  0.00  1.00  0.00  0.00  0.00  0.02  0.00
  HS02004901HS02004770    1.00   0.07  0.00  0.00  0.93  0.00  0.00  0.00  0.00  0.00
  HS02004876HS02004881    1.00   0.01  0.00  0.00  0.99  0.00  0.00  0.00  0.00  0.00
  HS02004870HS02004876    1.00   0.00  0.00  0.00  0.99  0.00  0.00  0.00  0.95  0.00
  HS02004842HS02004848    1.00   0.00  0.07  0.00  0.93  0.00  0.00  0.00  0.58  0.00
  HS02004837HS02004842    1.00   0.00  0.00  0.00  1.00  0.00  0.00  0.00  0.11  0.00
  HS02004830HS02004837    1.00   0.00  0.00  0.00  1.00  0.00  0.00  0.00  0.99  0.00
  HS02004824HS02004830    1.00   0.00  0.00  0.00  1.00  0.00  0.00  0.00  0.00  0.00
  HS02004817HS02004824    1.00   0.00  0.00  0.00  1.00  0.00  0.00  0.00  1.00  0.00
  HS02004770HS02004777    1.00   0.00  0.07  0.00  0.93  0.00  0.00  0.00  0.02  0.00
  HS02004799HS02004480    1.00   0.00  0.02  0.00  0.92  0.00  0.06  0.00  0.00  0.00
  HS02004792HS02004799    1.00   0.00  0.00  0.00  0.99  0.01  0.00  0.00  0.98  0.00
  HS02004788HS02004792    1.00   0.00  0.00  0.00  1.00  0.00  0.00  0.00  0.98  0.00
  HS02004785HS02004788    1.00   0.00  0.00  0.00  1.00  0.00  0.00  0.00  0.00  0.00
  HS02004777HS02004785    1.00   0.00  0.00  0.00  1.00  0.00  0.00  0.00  0.11  0.00
  HS02004480HS02004478    1.00   0.07  0.00  0.00  0.43  0.00  0.00  0.50  0.00  0.00
  HS02004479HS02004480    1.00   0.02  0.00  0.00  0.98  0.00  0.00  0.00  0.11  0.00
  HS02004862HS02004870    1.00   0.00  0.00  0.00  1.00  0.00  0.00  0.00  0.03  0.00
  HS02004848HS02004852    1.00   0.07  0.00  0.00  0.93  0.00  0.00  0.00  0.79  0.00
  HS02004856HS02004862    1.00   0.00  0.08  0.00  0.92  0.00  0.00  0.00  0.84  0.00
  HS02004852HS02004856    1.00   0.07  0.00  0.00  0.93  0.00  0.00  0.00  0.86  0.00
  HS02004802HS02004478    1.00   0.07  0.00  0.00  0.93  0.00  0.00  0.00  0.02  0.00
  HS02004478WS02006287    1.00   0.08  0.00  0.00  0.58  0.34  0.00  0.00  0.72  0.00
  HS02004817HS02004807    1.00   0.00  0.07  0.00  0.93  0.00  0.00  0.00  0.01  0.00
  HS02004807HS02004802    1.00   0.07  0.00  0.00  0.93  0.00  0.00  0.01  0.00  0.00
  YS02001759YS02001757    1.00   0.00  0.00  0.00  1.00  0.00  0.00  0.00  0.15  0.00
  YS02001762YS02001759    1.00   0.00  0.00  0.00  1.00  0.00  0.00  0.00  0.02  0.00
  YS02001765YS02001762    1.00   0.00  0.00  0.00  1.00  0.00  0.00  0.00  0.13  0.00
  YS02001770YS02001767    1.00   0.00  0.00  0.00  1.00  0.00  0.00  0.00  0.00  0.00
  YS02001774YS02001770    1.00   0.00  0.07  0.00  0.93  0.00  0.00  0.00  0.02  0.00
  YS02001779YS02001774    1.00   0.00  0.00  0.00  1.00  0.00  0.00  0.00  0.17  0.00
  YS02001649YS02001757    1.00   0.00  0.00  0.00  1.00  0.00  0.00  0.00  0.15  0.00
  YS02001767YS02001765    1.00   0.00  0.00  0.00  1.00  0.00  0.00  0.00  0.00  0.00
  YS02006561YS02001783    1.00   0.09  0.00  0.00  0.00  0.91  0.00  0.00  0.57  0.00
  YS02001783YS02001784    1.00   0.00  0.09  0.00  0.91  0.00  0.00  0.00  0.00  0.00
  YS02001784YS02001785    1.00   0.00  0.00  0.00  1.00  0.00  0.00  0.00  0.16  0.00
  YS02001788YS02001790    1.00   0.00  0.00  0.00  0.10  0.90  0.00  0.00  0.54  0.00
  YS02001790YS02001791    1.00   0.00  0.00  0.00  0.01  0.99  0.00  0.00  0.75  0.00
  YS02001791YS02001793    1.00   0.00  0.00  0.00  0.36  0.63  0.00  0.00  0.43  0.00
  YS02001910YS02001907    1.00   0.00  0.00  0.00  0.98  0.00  0.00  0.01  0.12  0.00
  YS02001786YS02001788    1.00   0.00  0.00  0.00  0.10  0.90  0.00  0.00  0.00  0.00
  YS02001915YS02001910    1.00   0.00  0.00  0.00  0.98  0.02  0.00  0.00  0.14  0.00
  YS02001918YS02001915    1.00   0.00  0.00  0.00  0.99  0.01  0.00  0.00  0.62  0.00
  YS02001923YS02001920    1.00   0.00  0.00  0.00  1.00  0.00  0.00  0.00  1.00  0.00
  YS02001926YS02001923    1.00   0.00  0.04  0.00  0.00  0.00  0.96  0.00  0.00  0.00
  YS02001929YS02001926    1.00   0.00  0.07  0.00  0.93  0.00  0.00  0.00  0.87  0.00
  YS02001920YS02001918    1.00   0.00  0.00  0.00  1.00  0.00  0.00  0.00  0.00  0.00
  YS02001629YS02163301    1.00   0.07  0.01  0.00  0.92  0.00  0.00  0.00  0.00  0.00
  YS02001619YS02001622    1.00   0.07  0.00  0.00  0.93  0.00  0.00  0.00  0.00  0.00
  YS02001622YS02001625    1.00   0.07  0.00  0.00  0.93  0.00  0.00  0.00  0.03  0.00
  YS02001625YS02001629    1.00   0.07  0.03  0.00  0.87  0.00  0.03  0.00  0.00  0.00
  YS02163301YS02001633    1.00   0.00  0.07  0.00  0.93  0.00  0.00  0.00  0.00  0.00
  YS02163601YS02164001    1.00   0.00  0.04  0.00  0.96  0.00  0.00  0.00  0.00  0.00
  YS02164001YS02001641    1.00   0.00  0.04  0.00  0.96  0.00  0.00  0.00  0.06  0.00
  YS02001641YS02001644    1.00   0.00  0.00  0.00  1.00  0.00  0.00  0.00  0.00  0.00
  YS02001647YS02001649    1.00   0.00  0.08  0.00  0.92  0.00  0.00  0.00  0.01  0.00
  YS02006553YS02006556    1.00   0.01  0.00  0.00  0.99  0.00  0.00  0.00  0.03  0.00
  YS02006556YS02006558    1.00   0.00  0.00  0.00  1.00  0.00  0.00  0.00  0.00  0.00
  YSB6556YSB1171          1.00   0.02  0.04  0.00  0.94  0.00  0.00  0.00  0.00  0.00
  YS02001907YS02006553    1.00   0.00  0.01  0.00  0.99  0.00  0.00  0.00  0.00  0.00
  YS02006558YS02006561    1.00   0.09  0.00  0.00  0.00  0.91  0.00  0.00  0.62  0.00
  YS02001633YS02163601    1.00   0.00  0.00  0.00  1.00  0.00  0.00  0.00  0.15  0.00
  YS02001644YS02001647    1.00   0.00  0.08  0.00  0.92  0.00  0.00  0.00  0.00  0.00
  YS02001745YS02001748    1.00   0.00  0.00  0.00  0.83  0.01  0.00  0.16  0.05  0.00
  YS02001748YS02001751    1.00   0.00  0.00  0.00  0.94  0.06  0.00  0.00  0.15  0.00
  YS02001751YS02001754    1.00   0.00  0.00  0.00  0.90  0.00  0.00  0.10  0.02  0.00
  YS02001754YS02001757    1.00   0.00  0.00  0.00  1.00  0.00  0.00  0.00  0.17  0.00
  YS02001882YS02001884    1.00   0.07  0.00  0.00  0.92  0.00  0.00  0.00  0.00  0.00
  YS02001884YS02001887    1.00   0.03  0.03  0.00  0.94  0.00  0.00  0.00  0.00  0.00
  YS02001890YS02001895    1.00   0.00  0.08  0.00  0.92  0.00  0.00  0.00  0.00  0.00
  YS02001895YS02001898    1.00   0.08  0.00  0.00  0.90  0.00  0.02  0.00  0.00  0.00
  YS02001898YS02001901    1.00   0.08  0.00  0.00  0.92  0.00  0.00  0.00  0.01  0.00
  YS02001901YS02001904    1.00   0.08  0.00  0.00  0.92  0.00  0.00  0.00  0.00  0.00
  YS02001904YS02001907    1.00   0.00  0.08  0.00  0.92  0.00  0.00  0.00  0.00  0.00
  YS02001887YS02001890    1.00   0.00  0.00  0.00  0.98  0.00  0.01  0.00  0.00  0.00
  YS02001652YS02001649    1.00   0.00  0.00  0.00  0.99  0.01  0.00  0.00  0.15  0.00
  YS02001655YS02001652    1.00   0.00  0.00  0.00  0.90  0.00  0.00  0.10  0.02  0.00
  YS02001658YS02001655    1.00   0.00  0.07  0.00  0.88  0.05  0.00  0.00  0.06  0.00
  YS02001661YS02001658    1.00   0.07  0.00  0.00  0.83  0.10  0.00  0.00  0.07  0.00
  YS02001664YS02001661    1.00   0.07  0.00  0.00  0.83  0.10  0.00  0.00  0.20  0.00
  YSB1154YSB6556          1.00   0.06  0.00  0.00  0.94  0.00  0.00  0.00  0.01  0.00
  YSB1174YSB1171          1.00   0.03  0.02  0.00  0.95  0.00  0.00  0.00  0.00  0.00
  YSB1171HS02004479       1.00   0.02  0.00  0.00  0.97  0.00  0.00  0.01  0.10  0.00
  HS02004881HS02006253    1.00   0.03  0.00  0.00  0.00  0.00  0.00  0.97  0.00  0.00
  YS02001793JiankangQianchi    1.00   0.00  0.00  0.00  1.00  0.00  0.00  0.00  0.46  0.00
  YS02001757CaochengTiaoxuchi    1.00   0.00  0.12  0.00  0.88  0.00  0.00  0.00  0.00  0.00
  WSF200WS02003060        1.00   0.00  0.15  0.00  0.85  0.00  0.00  0.00  0.54  0.00
  1                       1.00   0.00  0.00  0.00  0.00  1.00  0.00  0.00  0.35  0.00
  
  
  *************************
  Conduit Surcharge Summary
  *************************
  
  ----------------------------------------------------------------------------
                                                           Hours        Hours 
                         --------- Hours Full --------   Above Full   Capacity
  Conduit                Both Ends  Upstream  Dnstream   Normal Flow   Limited
  ----------------------------------------------------------------------------
  WS02006229WS02006228        1.39      1.43      1.39      2.06         1.39
  WS02006256WS02006235        4.90      4.95      6.27      4.43         0.01
  WS02006235WS02006234        0.01      0.01      0.01      4.63         0.01
  WS02006234WS02006232        0.01      0.01      0.58      0.01         0.01
  WS02006232WS02006231        0.01      0.01      0.58      0.01         0.01
  WS02006231WS02006230        0.01      0.01      0.01      5.20         0.01
  WS02006230WS02006229        1.61      1.79      1.61      5.73         1.61
  WS02006228WS02006109        1.41      1.51      1.41      3.45         1.41
  WS02006112WS02006115        0.01      0.01      0.54      0.01         0.01
  WS02006111WS02006112        0.01      0.01      2.50      0.01         0.01
  WS02006110WS02006113        0.01      0.01      1.46      0.01         0.01
  WS02006109WS02006110        0.01      0.01      1.51      0.01         0.01
  WS02004405WS02004406        0.01      0.01      0.01      0.15         0.01
  WS02004404WS02004405        0.01      0.01      0.01      5.55         0.01
  WS02003072WS02003073        0.01      0.01      0.01      4.27         0.01
  YS02001759YS02001757        5.99      5.99      6.08      0.01         0.01
  YS02001762YS02001759        5.97      5.97      5.99      0.01         0.01
  YS02001765YS02001762        5.93      5.93      5.97      0.01         0.01
  YS02001770YS02001767        5.90      5.90      5.90      0.01         0.58
  YS02001774YS02001770        5.89      5.89      5.96      0.01         0.01
  YS02001779YS02001774        5.73      5.73      5.96      0.01         0.01
  YS02001649YS02001757        5.97      5.97      6.08      0.01         0.01
  YS02001767YS02001765        5.90      5.90      5.93      0.01         0.01
  YS02001784YS02001785        0.01      0.01      0.01      1.65         0.01
  YS02001791YS02001793        0.01      0.01      0.37      0.01         0.01
  YS02001910YS02001907        0.01      0.01      0.94      0.01         0.01
  YS02001786YS02001788        0.01      0.01      0.01      1.17         0.01
  YS02001629YS02163301        5.88      5.88      5.90      0.01         0.01
  YS02001619YS02001622        5.42      5.42      5.48      0.01         0.01
  YS02001622YS02001625        5.48      5.48      5.84      0.01         0.01
  YS02001625YS02001629        5.43      5.43      5.84      0.01         0.01
  YS02163301YS02001633        5.90      5.90      5.94      0.01         0.01
  YS02163601YS02164001        5.93      5.93      5.97      0.01         0.01
  YS02164001YS02001641        5.93      5.93      5.94      0.01         0.01
  YS02001641YS02001644        5.94      5.94      5.95      0.01         0.80
  YS02001647YS02001649        5.82      5.82      5.97      0.01         0.01
  YS02006553YS02006556        0.01      0.01      1.09      0.01         0.01
  YS02006556YS02006558        0.16      0.16      1.19      0.01         0.01
  YS02001907YS02006553        1.69      1.69      1.93      0.01         0.01
  YS02006558YS02006561        0.01      0.01      0.01      1.48         0.01
  YS02001633YS02163601        5.92      5.92      5.97      0.01         0.01
  YS02001644YS02001647        5.82      5.82      5.95      0.01         0.01
  YS02001745YS02001748        0.01      0.01      5.21      0.01         0.01
  YS02001748YS02001751        5.26      5.26      5.44      0.01         0.01
  YS02001751YS02001754        5.44      5.44      5.75      0.01         0.01
  YS02001754YS02001757        5.80      5.80      6.08      0.01         0.01
  YS02001904YS02001907        0.01      0.01      1.11      0.01         0.01
  YS02001652YS02001649        5.83      5.83      5.97      0.01         0.01
  YS02001655YS02001652        5.50      5.50      5.80      0.01         0.01
  YS02001658YS02001655        5.23      5.23      5.50      0.01         0.01
  YS02001661YS02001658        0.05      0.05      5.23      0.01         0.01
  YS02001664YS02001661        0.01      0.01      0.30      0.01         0.01
  YS02001793JiankangQianchi        0.01      0.01      7.82      0.01         0.01
  YS02001757CaochengTiaoxuchi        5.20      5.20      6.08      0.01         0.01
  
  
  ***************
  Pumping Summary
  ***************
  
  ---------------------------------------------------------------------------------------------------------
                                                  Min       Avg       Max     Total     Power    % Time Off
                        Percent   Number of      Flow      Flow      Flow    Volume     Usage    Pump Curve
  Pump                 Utilized   Start-Ups       LPS       LPS       LPS  10^6 ltr     Kw-hr    Low   High
  ---------------------------------------------------------------------------------------------------------
  CC-Pump-1                0.00           0      0.00      0.00      0.00     0.000      0.00    0.0    0.0
  CC-Pump-2                0.00           0      0.00      0.00      0.00     0.000      0.00    0.0    0.0
  JK-Pump-1               56.40          10      0.00    300.00    300.00     4.772     52.89    0.0    0.0
  JK-Pump-2                9.36          43      0.00    683.00    683.00     1.803     18.55    0.0  100.0
  XR-Pump-1              100.00           1      0.00     95.00     95.00     2.679     14.67    0.0    0.0
  XR-Pump-2               94.70           1      0.00     95.00     95.00     2.537     13.25    0.0    0.0
  XR-Pump-3               81.29           1      0.00     95.00     95.00     2.178     10.44    0.0    0.0
  XR-Pump-4                0.00           0      0.00      0.00      0.00     0.000      0.00    0.0    0.0
  
  
  ***************************
  Link Pollutant Load Summary
  ***************************
  
  ------------------------------------------------------------------------------------------
                                 COD            SS            TN            TP         NH4-N
  Link                            kg            kg            kg            kg            kg
  ------------------------------------------------------------------------------------------
  WS02003066WSF200           505.620       890.470        15.820         1.494         8.650
  WS02006287WS02006284       174.331       309.861         7.542         0.811         4.351
  WS02006284WS02006280       174.850       310.694         7.590         0.817         4.381
  WS02006280WS02006229       174.820       310.644         7.588         0.817         4.379
  WS02006229WS02006228       506.355       889.970        15.802         1.487         8.634
  WS02006256WS02006235       310.708       538.803         7.832         0.647         4.079
  WS02006253WS02006251        25.711        48.290         0.608         0.047         0.305
  WS02006252WS02006251         0.000         0.000         0.000         0.000         0.000
  WS02006251WS02006249        26.314        49.284         0.660         0.053         0.338
  WS02006249WS02006248        26.293        49.216         0.662         0.053         0.339
  WS02006248WS02006247        26.727        49.961         0.675         0.055         0.346
  WS02006247WS02006245        28.097        52.181         0.728         0.060         0.376
  WS02006245WS02006243        30.040        55.406         0.787         0.065         0.408
  WS02006243WS02006242        34.049        62.013         0.894         0.074         0.463
  WS02006242WS02006240        41.116        73.476         1.099         0.091         0.572
  WS02006240WS02006239        47.841        84.308         1.314         0.111         0.689
  WS02006239WS02006238        54.843        95.458         1.551         0.133         0.820
  WS02006238WS02006235        59.033       102.010         1.696         0.147         0.901
  WS02006235WS02006234       333.541       582.419         8.322         0.682         4.318
  WS02006234WS02006232       333.527       582.470         8.319         0.682         4.316
  WS02006232WS02006231       332.772       581.223         8.290         0.679         4.300
  WS02006231WS02006230       332.578       580.891         8.283         0.678         4.296
  WS02006230WS02006229       332.406       580.727         8.270         0.677         4.288
  WS02006228WS02006109       505.438       888.562        15.729         1.479         8.588
  WS02006116WS02004401       514.774       904.833        16.337         1.552         8.958
  WS02006115WS02006116       515.340       905.663        16.371         1.556         8.979
  WS02006113WS02006111       512.109       899.279        16.402         1.563         9.010
  WS02006112WS02006115       516.009       906.743        16.413         1.561         9.004
  WS02006111WS02006112       511.927       899.039        16.387         1.562         9.001
  WS02006110WS02006113       512.302       899.591        16.417         1.565         9.020
  WS02006109WS02006110       513.165       900.976        16.486         1.574         9.063
  WS02004411WS02004412       508.246       894.657        15.979         1.512         8.745
  WS02004401WS02004402       513.904       903.444        16.286         1.546         8.928
  WS02004413WS02003067       506.231       891.418        15.854         1.498         8.670
  WS02004412WS02004413       507.349       893.257        15.925         1.506         8.713
  WS02004410WS02004411       508.883       895.641        16.018         1.517         8.769
  WS02004409WS02004410       509.423       896.481        16.052         1.521         8.790
  WS02004407WS02004409       509.843       897.107        16.079         1.524         8.806
  WS02004406WS02004407       509.979       897.281        16.088         1.525         8.811
  WS02004405WS02004406       511.885       900.342        16.221         1.541         8.893
  WS02004404WS02004405       512.652       901.485        16.255         1.544         8.912
  WS02004403WS02004404       512.230       900.803        16.188         1.535         8.869
  WS02004402WS02004403       513.057       902.127        16.237         1.541         8.898
  WS02004139WS02001211      1137.913      1842.293       101.067        12.489        62.741
  WS02004138WS02004139      1143.098      1850.714       101.511        12.544        63.016
  WS02003067WS02003066       505.688       890.572        15.825         1.495         8.653
  WS02001213WS02003059      1173.164      1898.421       104.565        12.928        64.934
  WS02001212WS02001213      1180.036      1909.567       105.162        13.002        65.304
  WS02001211WS02001212      1182.324      1913.245       105.374        13.028        65.436
  WS02003072WS02003073      1779.601      2950.068       130.195        15.651        79.721
  WS02003069WS02003072      1784.415      2957.773       130.644        15.707        80.001
  WS02003060WS02003069      1786.061      2960.443       130.765        15.721        80.075
  WS02003059WS02003060      1170.445      1893.995       104.336        12.900        64.792
  HS02004901HS02004770         5.607        10.256         0.108         0.008         0.050
  HS02004876HS02004881        21.679        40.616         0.537         0.042         0.271
  HS02004870HS02004876        16.426        30.661         0.445         0.036         0.228
  HS02004842HS02004848         3.323         6.017         0.072         0.005         0.033
  HS02004837HS02004842         7.960        13.392         0.542         0.064         0.328
  HS02004830HS02004837        56.215        93.575         4.380         0.533         2.700
  HS02004824HS02004830        56.965        94.776         4.452         0.542         2.745
  HS02004817HS02004824        69.644       118.842         4.724         0.559         2.878
  HS02004770HS02004777        21.634        40.015         0.464         0.031         0.212
  HS02004799HS02004480        78.584       140.493         2.662         0.261         1.454
  HS02004792HS02004799        71.671       127.000         2.581         0.260         1.424
  HS02004788HS02004792        43.536        77.099         1.895         0.200         1.078
  HS02004785HS02004788        23.047        42.267         0.611         0.049         0.305
  HS02004777HS02004785        22.379        41.196         0.550         0.042         0.267
  HS02004480HS02004478        98.016       177.202         2.952         0.280         1.584
  HS02004479HS02004480        23.035        42.494         0.603         0.057         0.325
  HS02004862HS02004870        12.186        22.319         0.360         0.031         0.188
  HS02004848HS02004852         4.178         7.605         0.090         0.006         0.041
  HS02004856HS02004862         7.682        14.407         0.158         0.010         0.074
  HS02004852HS02004856         4.189         7.624         0.090         0.006         0.041
  HS02004802HS02004478        77.242       134.171         4.657         0.540         2.807
  HS02004478WS02006287       174.529       310.181         7.560         0.814         4.362
  HS02004817HS02004807        68.229       116.591         4.582         0.542         2.789
  HS02004807HS02004802        77.430       134.461         4.688         0.544         2.828
  YS02001759YS02001757       218.898       384.973         4.566         0.317         2.246
  YS02001762YS02001759       108.200       191.545         2.444         0.175         1.224
  YS02001765YS02001762       108.274       191.980         2.470         0.177         1.240
  YS02001770YS02001767       107.252       191.137         2.250         0.146         1.096
  YS02001774YS02001770        62.726       113.472         1.284         0.083         0.623
  YS02001779YS02001774        62.150       112.303         1.381         0.098         0.690
  YS02001649YS02001757       312.612       539.818         6.564         0.455         3.182
  YS02001767YS02001765       108.800       193.175         2.501         0.180         1.257
  YS02006561YS02001783       553.627       972.261        12.740         0.995         6.483
  YS02001783YS02001784       553.554       972.161        12.736         0.995         6.480
  YS02001784YS02001785       560.901       983.938        13.449         1.084         6.926
  YS02001788YS02001790       561.544       984.997        13.521         1.093         6.972
  YS02001790YS02001791       562.492       986.522        13.619         1.105         7.033
  YS02001791YS02001793       562.500       986.557        13.618         1.105         7.033
  YS02001910YS02001907       186.537       322.687         5.455         0.462         2.914
  YS02001786YS02001788       561.120       984.304        13.477         1.087         6.944
  YS02001915YS02001910       186.580       322.727         5.417         0.457         2.889
  YS02001918YS02001915        90.679       149.977         3.362         0.342         1.907
  YS02001923YS02001920        70.771       118.178         1.416         0.098         0.690
  YS02001926YS02001923        70.426       117.629         1.378         0.093         0.666
  YS02001929YS02001926        70.188       117.237         1.346         0.089         0.646
  YS02001920YS02001918        90.674       150.025         3.335         0.338         1.889
  YS02001629YS02163301        76.033       130.768         1.626         0.103         0.755
  YS02001619YS02001622        79.188       135.677         1.701         0.108         0.789
  YS02001622YS02001625        78.150       134.077         1.676         0.106         0.777
  YS02001625YS02001629        77.011       132.375         1.648         0.105         0.764
  YS02163301YS02001633        76.028       130.771         1.624         0.103         0.754
  YS02163601YS02164001       213.018       364.485         4.357         0.304         2.084
  YS02164001YS02001641       212.684       363.941         4.340         0.303         2.074
  YS02001641YS02001644       213.139       364.673         4.342         0.303         2.074
  YS02001647YS02001649       311.220       535.327         6.561         0.454         3.178
  YS02006553YS02006556       399.745       699.823         9.474         0.763         4.882
  YS02006556YS02006558       399.910       700.126         9.442         0.758         4.860
  YSB6556YSB1171              12.957        24.061         0.287         0.025         0.149
  YS02001907YS02006553       399.766       699.869         9.496         0.766         4.897
  YS02006558YS02006561       553.748       972.468        12.743         0.995         6.484
  YS02001633YS02163601       213.630       365.403         4.335         0.300         2.067
  YS02001644YS02001647       314.877       542.112         6.617         0.457         3.204
  YS02001745YS02001748       115.934       203.431         2.815         0.202         1.425
  YS02001748YS02001751       114.352       200.582         2.836         0.208         1.445
  YS02001751YS02001754       113.524       199.267         2.821         0.207         1.439
  YS02001754YS02001757       114.328       200.515         2.984         0.229         1.544
  YS02001882YS02001884         1.985         3.343         0.041         0.003         0.020
  YS02001884YS02001887         4.840         8.313         0.097         0.008         0.049
  YS02001890YS02001895       214.385       378.874         4.067         0.306         1.996
  YS02001895YS02001898       214.226       378.648         4.061         0.305         1.992
  YS02001898YS02001901       214.124       378.507         4.058         0.305         1.991
  YS02001901YS02001904       214.029       378.393         4.066         0.306         1.996
  YS02001904YS02001907       214.360       378.953         4.120         0.313         2.031
  YS02001887YS02001890       215.193       380.111         4.121         0.312         2.029
  YS02001652YS02001649        82.514       142.594         1.789         0.128         0.837
  YS02001655YS02001652        83.480       144.118         1.814         0.130         0.849
  YS02001658YS02001655        83.306       143.792         1.737         0.119         0.797
  YS02001661YS02001658        87.685       151.434         1.828         0.125         0.839
  YS02001664YS02001661        94.452       163.046         1.971         0.135         0.905
  YSB1154YSB6556              12.541        23.391         0.239         0.019         0.119
  YSB1174YSB1171               8.562        16.000         0.186         0.016         0.095
  YSB1171HS02004479           22.974        42.388         0.608         0.058         0.328
  HS02004881HS02006253        24.446        45.940         0.589         0.045         0.296
  YS02001793JiankangQianchi       570.232       999.510        13.896         1.133         7.189
  YS02001757CaochengTiaoxuchi       324.353       573.304         6.901         0.504         3.395
  WSF200WS02003060           505.224       889.853        15.798         1.492         8.637
  1                         1786.793      2961.419       131.010        15.755        80.236
  CC-Pump-1                    0.000         0.000         0.000         0.000         0.000
  CC-Pump-2                    0.000         0.000         0.000         0.000         0.000
  JK-Pump-1                  375.425       651.498         9.433         0.779         4.910
  JK-Pump-2                  175.332       316.893         3.713         0.280         1.856
  XR-Pump-1                  404.101       653.832        36.043         4.457        22.384
  XR-Pump-2                  397.060       642.567        35.367         4.372        21.962
  XR-Pump-3                  344.383       558.285        30.311         3.740        18.802
  XR-Pump-4                    0.000         0.000         0.000         0.000         0.000
  

  Analysis begun on:  Sat Jul 10 15:50:14 2021
  Analysis ended on:  Sat Jul 10 15:50:15 2021
  Total elapsed time: 00:00:01