
  EPA STORM WATER MANAGEMENT MODEL - VERSION 5.1 (Build 5.3.0.dev0)
  --------------------------------------------------------------

  WARNING 04: minimum elevation drop used for Conduit WS02004404WS02004405
  WARNING 03: negative offset ignored for Link YS02001904YS02001907
  
  *********************************************************
  NOTE: The summary statistics displayed in this report are
  based on results found at every computational time step,  
  not just on results from each reporting time step.
  *********************************************************
  
  ****************
  Analysis Options
  ****************
  Flow Units ............... LPS
  Process Models:
    Rainfall/Runoff ........ YES
    RDII ................... NO
    Snowmelt ............... NO
    Groundwater ............ NO
    Flow Routing ........... YES
    Ponding Allowed ........ NO
    Water Quality .......... NO
  Infiltration Method ...... HORTON
  Flow Routing Method ...... DYNWAVE
  Surcharge Method ......... EXTRAN
  Starting Date ............ 08/28/2015 08:00:00
  Ending Date .............. 08/28/2015 15:50:00
  Antecedent Dry Days ...... 8.0
  Report Time Step ......... 00:01:00
  Wet Time Step ............ 00:01:00
  Dry Time Step ............ 00:01:00
  Routing Time Step ........ 5.00 sec
  Variable Time Step ....... YES
  Maximum Trials ........... 8
  Number of Threads ........ 4
  Head Tolerance ........... 0.001500 m
  
  
  **************************        Volume         Depth
  Runoff Quantity Continuity     hectare-m            mm
  **************************     ---------       -------
  Total Precipitation ......         5.556        12.164
  Evaporation Loss .........         0.000         0.000
  Infiltration Loss ........         1.427         3.124
  Surface Runoff ...........         3.072         6.726
  Final Storage ............         1.058         2.316
  Continuity Error (%) .....        -0.016
  
  
  **************************        Volume        Volume
  Flow Routing Continuity        hectare-m      10^6 ltr
  **************************     ---------     ---------
  Dry Weather Inflow .......         0.616         6.165
  Wet Weather Inflow .......         3.071        30.711
  Groundwater Inflow .......         0.000         0.000
  RDII Inflow ..............         0.000         0.000
  External Inflow ..........         0.102         1.024
  External Outflow .........         0.899         8.993
  Flooding Loss ............         2.313        23.134
  Evaporation Loss .........         0.000         0.000
  Exfiltration Loss ........         0.000         0.000
  Initial Stored Volume ....         0.076         0.761
  Final Stored Volume ......         0.660         6.604
  Continuity Error (%) .....        -0.183
  
  
  *************************
  Highest Continuity Errors
  *************************
  Node HS02004842 (16.24%)
  Node YS02001884 (12.22%)
  Node YSB1171 (3.12%)
  Node HS02004817 (2.99%)
  Node HS02004901 (2.33%)
  
  
  ***************************
  Time-Step Critical Elements
  ***************************
  Link WS02006252WS02006251 (62.65%)
  Link 3 (18.20%)
  Link WS02006280WS02006229 (3.69%)
  Link WS02006238WS02006235 (3.68%)
  Link YS02006556YS02006558 (2.61%)
  
  
  ********************************
  Highest Flow Instability Indexes
  ********************************
  Link WS02006113WS02006111 (45)
  Link YS02163601YS02164001 (30)
  Link YS02001619YS02001622 (30)
  Link YS02163301YS02001633 (29)
  Link YS02001629YS02163301 (28)
  
  
  *************************
  Routing Time Step Summary
  *************************
  Minimum Time Step           :     0.34 sec
  Average Time Step           :     1.12 sec
  Maximum Time Step           :     5.00 sec
  Percent in Steady State     :    -0.00
  Average Iterations per Step :     4.00
  Percent Not Converging      :    17.72
  
  
  ***************************
  Subcatchment Runoff Summary
  ***************************
  
  ------------------------------------------------------------------------------------------------------------------------------
                            Total      Total      Total      Total     Imperv       Perv      Total       Total     Peak  Runoff
                           Precip      Runon       Evap      Infil     Runoff     Runoff     Runoff      Runoff   Runoff   Coeff
  Subcatchment                 mm         mm         mm         mm         mm         mm         mm    10^6 ltr      LPS
  ------------------------------------------------------------------------------------------------------------------------------
  sub0                      12.16       0.00       0.00       0.85      10.05       0.00      10.05        0.01     1.91   0.826
  sub1                      12.16       0.00       0.00       1.34       9.56       0.00       9.56        0.06    14.15   0.786
  sub2                      12.16       0.00       0.00       4.50       6.75       0.00       6.75        0.06    13.75   0.555
  sub3                      12.16       0.00       0.00       4.50       6.71       0.00       6.71        0.15    32.07   0.552
  sub4                      12.16       0.00       0.00       1.34       9.40       0.00       9.40        0.20    40.20   0.773
  sub5                      12.16       0.00       0.00       0.85       9.99       0.00       9.99        0.11    25.19   0.822
  sub7                      12.16       0.00       0.00       1.09       9.81       0.00       9.81        0.03     7.55   0.807
  sub8                      12.16       0.00       0.00       1.09       9.80       0.00       9.80        0.06    14.17   0.806
  sub9                      12.16       0.00       0.00       1.09       9.80       0.00       9.80        0.05    10.64   0.806
  sub10                     12.16       0.00       0.00       0.97       9.89       0.00       9.89        0.11    24.40   0.813
  sub11                     12.16       0.00       0.00       0.97       9.91       0.00       9.91        0.12    26.15   0.815
  sub12                     12.16       0.00       0.00       1.58       9.39       0.00       9.39        0.08    19.06   0.772
  sub14                     12.16       0.00       0.00       1.09       9.80       0.00       9.80        0.09    21.02   0.805
  sub15                     12.16       0.00       0.00       3.65       7.53       0.00       7.53        0.13    29.11   0.619
  sub16                     12.16       0.00       0.00       4.01       7.23       0.00       7.23        0.08    17.47   0.594
  sub17                     12.16       0.00       0.00       3.89       7.34       0.00       7.34        0.06    14.47   0.603
  sub22                     12.16       0.00       0.00       5.23       6.14       0.00       6.14        0.39    88.27   0.505
  sub23                     12.16       0.00       0.00       4.50       6.79       0.00       6.79        0.32    73.89   0.558
  sub60                     12.16       0.00       0.00       1.46       7.71       0.00       7.71        2.34   297.17   0.634
  sub61                     12.16       0.00       0.00       2.07       7.87       0.00       7.87        2.43   359.80   0.647
  sub62                     12.16       0.00       0.00       0.97       8.55       0.00       8.55        2.63   372.87   0.703
  sub63                     12.16       0.00       0.00       3.53       6.89       0.00       6.89        2.09   327.80   0.567
  sub64                     12.16       0.00       0.00       1.82       7.40       0.00       7.40        2.25   282.66   0.608
  sub65                     12.16       0.00       0.00       1.58       7.52       0.00       7.52        2.31   287.20   0.618
  sub66                     12.16       0.00       0.00       3.53       6.36       0.00       6.36        1.95   257.27   0.523
  sub67                     12.16       0.00       0.00       0.97       9.05       0.00       9.05        2.79   452.90   0.744
  sub68                     12.16       0.00       0.00       1.70       8.28       0.00       8.28        2.55   391.99   0.681
  sub69                     12.16       0.00       0.00       1.82       8.61       0.00       8.61        2.01   355.79   0.708
  sub70                     12.16       8.79       0.00       7.03      11.43       0.10      11.53        2.64   335.00   0.550
  sub71                     12.16       0.00       0.00       0.97       8.31       0.00       8.31        1.96   263.63   0.683
  sub72                     12.16       0.00       0.00       0.85       6.56       0.00       6.56        1.34   129.40   0.540
  sub73                     12.16      11.23       0.00       7.88      12.47       0.08      12.54        2.95   300.52   0.536
  sub74                     12.16       0.00       0.00       9.12       2.57       0.00       2.57        1.03   189.59   0.211
  
  
  ******************
  Node Depth Summary
  ******************
  
  ---------------------------------------------------------------------------------
                                 Average  Maximum  Maximum  Time of Max    Reported
                                   Depth    Depth      HGL   Occurrence   Max Depth
  Node                 Type       Meters   Meters   Meters  days hr:min      Meters
  ---------------------------------------------------------------------------------
  WS02001211           JUNCTION     0.49     0.61     5.45     0  06:10        0.61
  WS02001212           JUNCTION     0.25     0.35     5.41     0  02:12        0.35
  WS02001213           JUNCTION     0.47     0.63     5.39     0  03:04        0.63
  WS02003069           JUNCTION     0.31     0.51     5.09     0  03:04        0.51
  WS02003072           JUNCTION     0.38     0.57     4.94     0  03:05        0.57
  WS02003073           JUNCTION     0.22     0.35     4.41     0  03:06        0.35
  WS02003060           JUNCTION     0.28     0.45     5.38     0  03:03        0.45
  WS02003066           JUNCTION     0.19     0.32     5.87     0  03:00        0.32
  WS02003059           JUNCTION     0.54     0.70     5.39     0  03:04        0.70
  WS02003067           JUNCTION     0.49     0.73     6.05     0  03:00        0.73
  WS02004401           JUNCTION     0.58     0.93     6.93     0  02:56        0.93
  WS02004402           JUNCTION     0.61     0.95     6.91     0  02:56        0.95
  WS02004403           JUNCTION     0.63     0.96     6.89     0  02:56        0.96
  WS02004404           JUNCTION     0.71     1.03     6.88     0  02:56        1.03
  WS02004406           JUNCTION     0.72     1.00     6.83     0  02:56        1.00
  WS02004409           JUNCTION     0.39     0.73     6.50     0  02:59        0.73
  WS02004410           JUNCTION     0.41     0.74     6.46     0  02:59        0.74
  WS02004411           JUNCTION     0.43     0.74     6.42     0  02:59        0.74
  WS02004412           JUNCTION     0.45     0.74     6.38     0  02:59        0.74
  WS02004413           JUNCTION     0.60     0.90     6.37     0  03:00        0.90
  WS02004405           JUNCTION     0.71     1.01     6.86     0  02:57        1.01
  WS02006109           JUNCTION     0.66     1.06     7.68     0  02:54        1.05
  WS02006110           JUNCTION     0.67     0.98     7.56     0  02:54        0.98
  WS02006111           JUNCTION     0.18     0.31     7.02     0  02:53        0.31
  WS02006112           JUNCTION     0.74     1.18     7.06     0  03:00        1.16
  WS02006113           JUNCTION     0.28     0.49     7.38     0  02:53        0.49
  WS02006115           JUNCTION     0.47     0.84     6.98     0  02:57        0.84
  WS02006116           JUNCTION     0.55     0.91     6.95     0  02:56        0.91
  WS02006230           JUNCTION     0.60     1.12     7.86     0  02:50        1.11
  WS02006231           JUNCTION     0.38     0.78     7.91     0  02:50        0.76
  WS02006232           JUNCTION     0.49     0.90     7.94     0  02:50        0.87
  WS02006234           JUNCTION     0.39     0.80     7.96     0  02:50        0.78
  WS02006235           JUNCTION     0.42     0.82     7.98     0  02:50        0.80
  WS02006238           JUNCTION     0.44     0.85     7.99     0  02:50        0.83
  WS02006240           JUNCTION     0.34     0.77     8.06     0  02:50        0.75
  WS02006242           JUNCTION     0.40     0.83     8.10     0  02:50        0.82
  WS02006243           JUNCTION     0.28     0.72     8.14     0  02:50        0.71
  WS02006245           JUNCTION     0.28     0.70     8.18     0  02:50        0.66
  WS02006247           JUNCTION     0.31     0.73     8.23     0  02:50        0.70
  WS02006248           JUNCTION     0.26     0.64     8.23     0  02:50        0.63
  WS02006249           JUNCTION     0.30     0.64     8.24     0  02:50        0.63
  WS02006239           JUNCTION     0.40     0.81     8.02     0  02:50        0.80
  WS02006251           JUNCTION     0.28     0.66     8.33     0  02:50        0.66
  WS02006252           JUNCTION     0.24     0.59     8.83     0  02:49        0.58
  WS02006253           JUNCTION     0.31     0.69     8.34     0  02:51        0.69
  WS02006256           JUNCTION     0.79     1.12     8.06     0  03:10        1.12
  WS02004138           JUNCTION     0.08     0.14     7.39     0  06:03        0.14
  WS02004407           JUNCTION     0.18     0.32     6.63     0  02:57        0.32
  WS02006228           JUNCTION     0.65     1.12     7.77     0  02:50        1.11
  WS02006229           JUNCTION     0.63     1.12     7.82     0  02:50        1.12
  WS02006280           JUNCTION     0.07     0.19     8.46     0  03:02        0.19
  WS02006284           JUNCTION     0.38     0.55     8.95     0  03:02        0.55
  WS02006287           JUNCTION     0.11     0.28     9.24     0  03:01        0.28
  WSF200               JUNCTION     0.17     0.32     5.56     0  03:03        0.32
  HS02004901           JUNCTION     0.13     0.28    10.10     0  03:01        0.28
  HS02004881           JUNCTION     0.01     0.04     9.07     0  03:01        0.04
  HS02004876           JUNCTION     0.05     0.12     9.15     0  03:01        0.12
  HS02004870           JUNCTION     0.02     0.06     9.35     0  03:01        0.06
  HS02004862           JUNCTION     0.02     0.07     9.46     0  03:01        0.07
  HS02004856           JUNCTION     0.08     0.13     9.55     0  03:01        0.13
  HS02004852           JUNCTION     0.01     0.05     9.56     0  03:01        0.05
  HS02004848           JUNCTION     0.01     0.05     9.65     0  03:01        0.05
  HS02004842           JUNCTION     0.34     0.38     9.65     0  03:01        0.38
  HS02004837           JUNCTION     0.03     0.07     9.65     0  03:01        0.07
  HS02004830           JUNCTION     0.04     0.08     9.55     0  03:01        0.08
  HS02004824           JUNCTION     0.03     0.06     9.46     0  03:01        0.06
  HS02004817           JUNCTION     0.45     0.60     9.44     0  03:01        0.60
  HS02004807           JUNCTION     0.13     0.27     9.44     0  03:01        0.27
  HS02004802           JUNCTION     0.17     0.30     9.43     0  03:01        0.30
  HS02004799           JUNCTION     0.13     0.33     9.54     0  03:01        0.33
  HS02004792           JUNCTION     0.04     0.14     9.66     0  03:01        0.14
  HS02004788           JUNCTION     0.03     0.10    10.00     0  03:01        0.10
  HS02004785           JUNCTION     0.05     0.17    10.07     0  03:01        0.17
  HS02004777           JUNCTION     0.16     0.30    10.10     0  03:01        0.30
  HS02004770           JUNCTION     0.13     0.27    10.10     0  03:01        0.27
  HS02004480           JUNCTION     0.09     0.26     9.50     0  03:01        0.26
  HS02004479           JUNCTION     0.13     0.30     9.50     0  03:01        0.30
  HS02004478           JUNCTION     0.07     0.18     9.41     0  03:01        0.18
  YS02001745           JUNCTION     0.68     0.90     8.41     0  03:26        0.89
  YS02001748           JUNCTION     1.06     1.99     9.07     0  02:40        1.33
  YS02001751           JUNCTION     1.23     1.91     8.79     0  02:40        1.53
  YS02001754           JUNCTION     1.48     1.89     8.49     0  02:40        1.81
  YS02001762           JUNCTION     1.68     2.03     8.43     0  03:07        2.02
  YS02001765           JUNCTION     1.63     1.98     8.43     0  03:14        1.97
  YS02001767           JUNCTION     1.60     1.93     8.42     0  03:14        1.92
  YS02001770           JUNCTION     1.59     1.91     8.41     0  03:29        1.91
  YS02001774           JUNCTION     1.66     1.97     8.40     0  03:01        1.97
  YS02001779           JUNCTION     1.41     1.68     8.37     0  02:49        1.68
  YS02001882           JUNCTION     0.51     1.61     8.33     0  03:00        1.60
  YS02001884           JUNCTION     0.60     1.72     8.33     0  03:00        1.70
  YS02001759           JUNCTION     1.72     2.07     8.43     0  03:10        2.06
  YS02001887           JUNCTION     0.68     1.79     8.33     0  03:00        1.78
  YS02001890           JUNCTION     0.71     1.81     8.32     0  03:01        1.80
  YS02001898           JUNCTION     0.48     1.56     8.29     0  03:01        1.55
  YS02001901           JUNCTION     0.60     1.67     8.28     0  03:01        1.66
  YS02001904           JUNCTION     0.57     1.64     8.27     0  02:55        1.63
  YS02001907           JUNCTION     0.91     1.96     8.25     0  02:52        1.96
  YS02001910           JUNCTION     0.69     1.78     8.28     0  02:53        1.77
  YS02001915           JUNCTION     0.49     1.59     8.30     0  02:53        1.57
  YS02001918           JUNCTION     0.25     1.26     8.33     0  02:53        1.25
  YS02001619           JUNCTION     1.20     1.54     8.46     0  02:39        1.47
  YS02001629           JUNCTION     1.55     1.85     8.40     0  02:43        1.84
  YS02001641           JUNCTION     1.65     1.94     8.37     0  02:43        1.93
  YS02001644           JUNCTION     1.65     1.92     8.35     0  02:43        1.92
  YS02001652           JUNCTION     1.49     2.16     8.76     0  02:52        1.97
  YS02001655           JUNCTION     1.26     2.20     9.05     0  03:04        1.86
  YS02001920           JUNCTION     0.35     1.33     8.34     0  02:53        1.32
  YS02001923           JUNCTION     0.20     1.09     8.35     0  02:53        1.08
  YS02001926           JUNCTION     0.26     0.90     8.34     0  02:53        0.89
  YS02001929           JUNCTION     0.14     0.68     8.37     0  02:53        0.63
  YS02001658           JUNCTION     1.00     2.30     9.44     0  02:53        1.68
  YS02001661           JUNCTION     0.79     2.46     9.86     0  02:52        1.64
  YS02001664           JUNCTION     0.35     0.57     8.50     0  02:51        0.56
  YS02001622           JUNCTION     1.22     1.54     8.45     0  02:39        1.49
  YS02001633           JUNCTION     1.64     1.95     8.40     0  02:43        1.94
  YS02001649           JUNCTION     1.69     2.05     8.44     0  02:51        2.05
  YS02001757           JUNCTION     1.82     2.17     8.43     0  03:18        2.16
  YS02001895           JUNCTION     0.47     1.56     8.31     0  03:01        1.55
  YS02001625           JUNCTION     1.51     1.78     8.38     0  02:39        1.78
  YS02163301           JUNCTION     1.58     1.88     8.40     0  02:43        1.87
  YS02163601           JUNCTION     1.69     2.00     8.40     0  02:43        1.98
  YS02164001           JUNCTION     1.63     1.93     8.39     0  02:43        1.91
  YS02001647           JUNCTION     1.48     1.80     8.41     0  02:56        1.79
  YSB1154              JUNCTION     0.27     0.45     9.51     0  03:01        0.45
  YSB6556              JUNCTION     0.16     0.34     9.51     0  03:01        0.34
  YSB1174              JUNCTION     0.22     0.40     9.51     0  03:01        0.40
  YSB1171              JUNCTION     0.42     0.60     9.51     0  03:01        0.60
  YS02006553           JUNCTION     0.91     1.96     8.25     0  03:00        1.96
  YS02006561           JUNCTION     0.29     1.08     7.74     0  03:00        1.08
  YS02006556           JUNCTION     0.88     1.92     8.23     0  03:00        1.91
  YS02006558           JUNCTION     0.92     1.96     8.23     0  02:59        1.95
  YS02001783           JUNCTION     0.57     1.47     7.61     0  03:07        1.46
  YS02001784           JUNCTION     0.60     1.42     7.49     0  02:58        1.41
  YS02001786           JUNCTION     0.58     1.26     7.29     0  03:00        1.25
  YS02001788           JUNCTION     0.56     1.13     7.11     0  03:11        1.12
  YS02001790           JUNCTION     0.77     1.50     7.14     0  02:21        1.29
  YS02001791           JUNCTION     0.85     1.28     6.75     0  02:54        1.27
  YS02001793           JUNCTION     1.35     1.82     6.66     0  02:23        1.80
  WS02004139           JUNCTION     0.43     0.55     5.46     0  06:10        0.55
  WSC                  OUTFALL      0.22     0.35     1.02     0  03:06        0.35
  3                    OUTFALL      0.03     0.12     6.12     0  03:10        0.12
  4                    OUTFALL      0.00     0.14     7.14     0  02:50        0.13
  5                    OUTFALL      0.00     0.00     5.00     0  00:00        0.00
  JK-storage           STORAGE      4.94     5.80     6.60     0  02:22        5.80
  CC-storage           STORAGE      1.05     1.40     8.40     0  03:24        1.40
  XR-storage           STORAGE      7.68     7.72     5.72     0  00:58        7.72
  
  
  *******************
  Node Inflow Summary
  *******************
  
  -------------------------------------------------------------------------------------------------
                                  Maximum  Maximum                  Lateral       Total        Flow
                                  Lateral    Total  Time of Max      Inflow      Inflow     Balance
                                   Inflow   Inflow   Occurrence      Volume      Volume       Error
  Node                 Type           LPS      LPS  days hr:min    10^6 ltr    10^6 ltr     Percent
  -------------------------------------------------------------------------------------------------
  WS02001211           JUNCTION      7.35   197.50     0  06:10       0.207        2.46       0.563
  WS02001212           JUNCTION      0.00   197.34     0  06:10           0        2.44       0.250
  WS02001213           JUNCTION      0.00   197.27     0  06:10           0        2.44       0.578
  WS02003069           JUNCTION      0.32   735.92     0  03:04     0.00902         8.2       0.212
  WS02003072           JUNCTION      0.00   735.75     0  03:04           0        8.18       0.289
  WS02003073           JUNCTION      1.82   737.62     0  03:05      0.0514        8.21       0.304
  WS02003060           JUNCTION     16.53   735.79     0  03:03       0.466        8.23       0.203
  WS02003066           JUNCTION      0.00   624.43     0  03:00           0        5.35       0.075
  WS02003059           JUNCTION      0.00   198.49     0  06:10           0        2.45       1.131
  WS02003067           JUNCTION      0.00   624.38     0  03:00           0        5.36       0.158
  WS02004401           JUNCTION      0.00   626.73     0  02:55           0        5.57       0.338
  WS02004402           JUNCTION      0.00   626.89     0  02:56           0        5.55       0.324
  WS02004403           JUNCTION      0.00   626.76     0  02:56           0        5.53       0.298
  WS02004404           JUNCTION      0.16   625.39     0  02:56     0.00457        5.52       0.228
  WS02004406           JUNCTION      0.00   625.49     0  02:57           0        5.49       0.557
  WS02004409           JUNCTION      0.00   625.58     0  02:57           0        5.45       0.250
  WS02004410           JUNCTION      0.00   624.88     0  02:59           0        5.44       0.292
  WS02004411           JUNCTION      0.00   624.67     0  02:59           0        5.42       0.305
  WS02004412           JUNCTION      0.00   624.47     0  02:59           0        5.41       0.336
  WS02004413           JUNCTION      0.00   624.48     0  02:59           0        5.39       0.516
  WS02004405           JUNCTION      0.04   625.42     0  02:57     0.00107        5.51       0.348
  WS02006109           JUNCTION      1.23   614.62     0  02:54      0.0347        5.61       0.290
  WS02006110           JUNCTION      0.00   614.65     0  02:54           0        5.59       0.313
  WS02006111           JUNCTION      0.00   645.79     0  02:53           0        5.57       0.057
  WS02006112           JUNCTION     14.47   634.11     0  02:53      0.0629        5.63       0.424
  WS02006113           JUNCTION      0.00   615.64     0  02:54           0        5.57       0.127
  WS02006115           JUNCTION      0.00   639.85     0  02:53           0         5.6       0.328
  WS02006116           JUNCTION      0.00   627.81     0  02:54           0        5.58       0.259
  WS02006230           JUNCTION     10.28   317.17     0  03:15        0.29        3.71       0.189
  WS02006231           JUNCTION      0.00   303.30     0  03:14           0        3.43       0.298
  WS02006232           JUNCTION      0.00   303.14     0  03:14           0        3.45       0.366
  WS02006234           JUNCTION      0.00   305.73     0  04:33           0        3.45       0.138
  WS02006235           JUNCTION      0.00   312.06     0  04:32           0         3.5       0.232
  WS02006238           JUNCTION      0.00   312.86     0  04:32           0        2.49       0.069
  WS02006240           JUNCTION      0.00   325.00     0  04:32           0        2.46       0.267
  WS02006242           JUNCTION      0.00   333.47     0  04:31           0        2.45       0.301
  WS02006243           JUNCTION      0.00   341.76     0  04:31           0        2.44      -0.090
  WS02006245           JUNCTION      0.00   346.21     0  04:31           0        2.45       0.426
  WS02006247           JUNCTION      0.00   350.40     0  04:30           0        2.45       0.043
  WS02006248           JUNCTION      0.00   354.27     0  04:30           0        2.45      -0.184
  WS02006249           JUNCTION      0.00   453.08     0  02:50           0        2.51       0.285
  WS02006239           JUNCTION      0.00   315.44     0  04:32           0        2.47      -0.056
  WS02006251           JUNCTION      0.08   459.23     0  02:50     0.00217        2.53      -0.022
  WS02006252           JUNCTION      0.00   399.92     0  04:30           0        2.14       0.004
  WS02006253           JUNCTION      1.91    80.97     0  03:01     0.00814       0.387       0.046
  WS02006256           JUNCTION      0.00   300.00     0  01:40           0         1.8       0.151
  WS02004138           JUNCTION      0.00   190.00     0  06:00           0        2.25       0.009
  WS02004407           JUNCTION      0.00   625.97     0  02:57           0        5.46       0.109
  WS02006228           JUNCTION      0.00   613.46     0  02:54           0        5.59       0.227
  WS02006229           JUNCTION      0.00   614.72     0  02:50           0         5.6       0.183
  WS02006280           JUNCTION      0.00   375.54     0  03:02           0        1.89       0.004
  WS02006284           JUNCTION      0.10   375.53     0  03:02      0.0027        1.89       0.063
  WS02006287           JUNCTION      0.00   375.26     0  03:01           0        1.89       0.037
  WSF200               JUNCTION      0.00   624.43     0  03:00           0        5.35       0.061
  HS02004901           JUNCTION     17.47    17.47     0  03:01      0.0757      0.0759       2.381
  HS02004881           JUNCTION      7.55    79.18     0  03:01      0.0331       0.357       0.045
  HS02004876           JUNCTION     14.15    72.10     0  03:01      0.0636       0.324       0.171
  HS02004870           JUNCTION     14.17    58.27     0  03:01      0.0626       0.261       0.043
  HS02004862           JUNCTION     13.95    44.46     0  03:01      0.0685       0.198       0.089
  HS02004856           JUNCTION     10.64    30.79     0  03:01      0.0471       0.131       1.115
  HS02004852           JUNCTION      0.00    20.44     0  03:01           0       0.084       0.069
  HS02004848           JUNCTION     32.07    32.07     0  03:01       0.151       0.151       0.033
  HS02004842           JUNCTION      0.00    11.42     0  03:01           0      0.0801      19.388
  HS02004837           JUNCTION     30.75    41.91     0  03:01       0.288       0.355       0.228
  HS02004830           JUNCTION      0.15    41.84     0  03:01     0.00423       0.346       0.358
  HS02004824           JUNCTION     40.25    81.79     0  03:01       0.198       0.542       0.100
  HS02004817           JUNCTION      0.60    82.18     0  03:01      0.0169       0.558       3.078
  HS02004807           JUNCTION     26.15   107.24     0  03:01       0.115       0.657       0.656
  HS02004802           JUNCTION      0.00   106.48     0  03:01           0       0.653       0.619
  HS02004799           JUNCTION     21.02   227.51     0  03:01      0.0933        1.06       0.236
  HS02004792           JUNCTION     88.55   207.32     0  03:01       0.396       0.966       0.043
  HS02004788           JUNCTION     30.78   119.37     0  03:01       0.177       0.571       0.069
  HS02004785           JUNCTION      0.15    89.79     0  03:01     0.00423       0.396       0.125
  HS02004777           JUNCTION      0.03    90.23     0  03:01    0.000846       0.397       1.326
  HS02004770           JUNCTION     73.89    90.93     0  03:01       0.324       0.398       0.788
  HS02004480           JUNCTION      0.00   269.26     0  03:01           0        1.25       0.098
  HS02004479           JUNCTION      0.00    42.82     0  03:02           0       0.204       0.361
  HS02004478           JUNCTION      0.00   375.16     0  03:01           0        1.89       0.018
  YS02001745           JUNCTION    297.18   346.04     0  02:39        2.34        2.34       0.490
  YS02001748           JUNCTION      0.04   537.22     0  02:40     0.00127        2.33       0.950
  YS02001751           JUNCTION      0.01   307.32     0  03:01     0.00031        2.31       1.013
  YS02001754           JUNCTION      0.26   307.48     0  03:01     0.00733        2.29       1.102
  YS02001762           JUNCTION      0.00   322.98     0  02:52           0        1.79       1.201
  YS02001765           JUNCTION      0.00   322.81     0  02:52           0        1.79       1.367
  YS02001767           JUNCTION      0.54   322.68     0  02:52      0.0151        1.81       2.005
  YS02001770           JUNCTION    373.02   418.71     0  03:29        2.63        2.96       1.087
  YS02001774           JUNCTION      0.00   419.04     0  03:29           0        1.46       1.745
  YS02001779           JUNCTION      0.01   420.49     0  03:28    0.000141        1.43       1.088
  YS02001882           JUNCTION      0.00    16.41     0  02:45           0      0.0148      16.271
  YS02001884           JUNCTION      0.00    21.80     0  02:43           0      0.0502      13.915
  YS02001759           JUNCTION    359.84   635.17     0  02:52        2.43        3.86       0.599
  YS02001887           JUNCTION    453.35   453.38     0  03:01         2.8        2.83       0.292
  YS02001890           JUNCTION      0.00   453.57     0  03:01           0        2.79       0.325
  YS02001898           JUNCTION      0.00   453.77     0  03:01           0        2.77       0.109
  YS02001901           JUNCTION      0.00   454.16     0  03:01           0        2.77       0.249
  YS02001904           JUNCTION      0.00   454.08     0  03:00           0        2.77       0.214
  YS02001907           JUNCTION      0.00   862.76     0  02:58           0        6.12       0.385
  YS02001910           JUNCTION      0.00   432.17     0  02:54           0        3.37       0.342
  YS02001915           JUNCTION    263.65   431.95     0  02:54        1.96        3.39       0.180
  YS02001918           JUNCTION      0.00   198.49     0  02:54           0        1.43       0.132
  YS02001619           JUNCTION    257.27   257.27     0  03:01        1.95        1.95       0.634
  YS02001629           JUNCTION      0.00   200.95     0  02:47           0        1.62       1.822
  YS02001641           JUNCTION      0.00   423.62     0  02:47           0        3.84       0.559
  YS02001644           JUNCTION    282.70  1126.08     0  03:26        2.25        9.21       0.292
  YS02001652           JUNCTION      0.00   371.08     0  03:02           0        2.04       1.155
  YS02001655           JUNCTION      0.15   370.21     0  03:02     0.00434        2.06       1.241
  YS02001920           JUNCTION      2.87   198.47     0  02:54      0.0809        1.42       0.202
  YS02001923           JUNCTION      0.04   206.90     0  02:54     0.00106        1.34       0.051
  YS02001926           JUNCTION      0.05   174.12     0  02:54     0.00147        1.34       0.247
  YS02001929           JUNCTION    129.40   129.40     0  03:01        1.34        1.34       0.041
  YS02001658           JUNCTION      0.00   499.76     0  02:39           0        2.08       1.153
  YS02001661           JUNCTION      0.00   686.43     0  02:51           0         2.4      -0.094
  YS02001664           JUNCTION    327.80   364.67     0  02:50        2.09         2.4       0.272
  YS02001622           JUNCTION      0.00   257.53     0  03:01           0        1.94       1.671
  YS02001633           JUNCTION    287.40   423.28     0  02:47        2.32        3.89       0.830
  YS02001649           JUNCTION      0.00   903.95     0  02:49           0        5.56       0.681
  YS02001757           JUNCTION      0.00  1717.04     0  02:49           0        8.32       1.120
  YS02001895           JUNCTION      0.00   453.51     0  03:01           0        2.78       0.176
  YS02001625           JUNCTION      0.00   257.22     0  03:01           0         1.9       2.059
  YS02163301           JUNCTION      0.00   201.21     0  02:47           0         1.6       1.520
  YS02163601           JUNCTION      0.11   423.41     0  02:47      0.0031        3.86       0.788
  YS02164001           JUNCTION      0.00   423.48     0  02:47           0        3.84       0.516
  YS02001647           JUNCTION      0.00   642.26     0  02:47           0        4.72       0.601
  YSB1154              JUNCTION     25.19    25.19     0  03:01       0.113       0.114       1.286
  YSB6556              JUNCTION      0.00    24.91     0  03:01           0       0.115       1.100
  YSB1174              JUNCTION     19.06    19.06     0  03:01      0.0821      0.0827       1.581
  YSB1171              JUNCTION      0.00    43.18     0  03:01           0       0.203       3.219
  YS02006553           JUNCTION      0.00   666.98     0  03:17           0         5.9       0.261
  YS02006561           JUNCTION      0.00   964.79     0  03:00           0        8.42       0.005
  YS02006556           JUNCTION      0.00   666.79     0  03:17           0         5.9       0.175
  YS02006558           JUNCTION    392.87   965.97     0  03:00        2.57        8.45       0.065
  YS02001783           JUNCTION      0.00   964.50     0  03:00           0        8.42       0.027
  YS02001784           JUNCTION      1.06   965.87     0  03:00      0.0299        8.45       0.042
  YS02001786           JUNCTION      0.06   965.71     0  03:00     0.00159        8.44       0.040
  YS02001788           JUNCTION      0.07   965.80     0  03:00       0.002        8.44       0.023
  YS02001790           JUNCTION      0.15   966.29     0  03:00     0.00437        8.44       0.020
  YS02001791           JUNCTION      0.00   965.94     0  03:00           0        8.44       0.013
  YS02001793           JUNCTION      0.00   966.16     0  03:00           0        8.45       0.019
  WS02004139           JUNCTION      0.32   190.32     0  06:03     0.00905        2.26       0.636
  WSC                  OUTFALL       0.00   737.72     0  03:06           0        8.18       0.000
  3                    OUTFALL       0.00   214.48     0  03:10           0       0.758       0.000
  4                    OUTFALL       0.00   184.02     0  02:50           0      0.0516       0.000
  5                    OUTFALL       0.00     0.00     0  00:00           0           0       0.000 ltr
  JK-storage           STORAGE       0.00   966.30     0  03:00           0        8.59      -0.532
  CC-storage           STORAGE       0.00  1717.79     0  02:49           0        6.22       1.061
  XR-storage           STORAGE     690.11   690.11     0  03:01        9.61        10.2      -0.001
  
  
  **********************
  Node Surcharge Summary
  **********************
  
  Surcharging occurs when water rises above the top of the highest conduit.
  ---------------------------------------------------------------------
                                               Max. Height   Min. Depth
                                   Hours       Above Crown    Below Rim
  Node                 Type      Surcharged         Meters       Meters
  ---------------------------------------------------------------------
  WS02004404           JUNCTION        0.24          0.025        2.755
  WS02004406           JUNCTION        0.09          0.003        2.447
  WS02004405           JUNCTION        0.20          0.014        2.786
  WS02006109           JUNCTION        1.18          0.241        1.579
  WS02006110           JUNCTION        0.43          0.070        1.780
  WS02006112           JUNCTION        0.74          0.182        1.498
  WS02006230           JUNCTION        0.16          0.039        1.531
  WS02006231           JUNCTION        0.21          0.074        1.456
  WS02006232           JUNCTION        0.65          0.198        1.282
  WS02006234           JUNCTION        0.19          0.084        1.156
  WS02006235           JUNCTION        0.27          0.106        1.184
  WS02006238           JUNCTION        0.36          0.125        1.305
  WS02006240           JUNCTION        0.11          0.061        1.329
  WS02006242           JUNCTION        0.15          0.101        0.719
  WS02006243           JUNCTION        0.01          0.012        0.758
  WS02006247           JUNCTION        0.01          0.016        0.744
  WS02006239           JUNCTION        0.15          0.074        1.216
  WS02006252           JUNCTION        0.25          0.189        0.911
  WS02006228           JUNCTION        1.16          0.289        1.911
  YS02001748           JUNCTION        5.09          0.912        0.278
  YS02001751           JUNCTION        5.26          0.909        0.291
  YS02001754           JUNCTION        5.42          0.836        0.314
  YS02001762           JUNCTION        5.64          1.030        0.120
  YS02001765           JUNCTION        5.61          0.975        0.125
  YS02001767           JUNCTION        5.58          0.933        0.097
  YS02001770           JUNCTION        5.57          0.882        0.038
  YS02001774           JUNCTION        5.63          0.974        0.076
  YS02001779           JUNCTION        5.41          0.680        0.000
  YS02001882           JUNCTION        0.81          0.614        0.216
  YS02001884           JUNCTION        0.84          0.657        0.213
  YS02001759           JUNCTION        5.66          1.070        0.140
  YS02001887           JUNCTION        0.93          0.741        0.209
  YS02001890           JUNCTION        0.97          0.760        0.000
  YS02001898           JUNCTION        0.76          0.527        0.213
  YS02001901           JUNCTION        0.90          0.674        0.196
  YS02001904           JUNCTION        0.87          0.636        0.214
  YS02001907           JUNCTION        1.52          0.950        0.000
  YS02001910           JUNCTION        1.02          0.777        0.323
  YS02001915           JUNCTION        0.80          0.586        0.414
  YS02001918           JUNCTION        0.54          0.260        0.550
  YS02001619           JUNCTION        5.27          0.535        0.075
  YS02001629           JUNCTION        5.28          0.470        0.000
  YS02001641           JUNCTION        5.62          0.938        0.162
  YS02001644           JUNCTION        5.62          0.920        0.000
  YS02001652           JUNCTION        5.44          1.130        0.000
  YS02001655           JUNCTION        5.29          1.200        0.000
  YS02001920           JUNCTION        0.57          0.332        0.808
  YS02001658           JUNCTION        5.12          1.300        0.000
  YS02001661           JUNCTION        0.12          1.390        0.000
  YS02001622           JUNCTION        5.28          0.541        0.079
  YS02001633           JUNCTION        5.60          0.928        0.132
  YS02001649           JUNCTION        5.64          1.050        0.000
  YS02001757           JUNCTION        5.74          1.170        0.040
  YS02001895           JUNCTION        0.78          0.559        0.191
  YS02001625           JUNCTION        5.53          0.780        0.000
  YS02163301           JUNCTION        5.58          0.885        0.145
  YS02163601           JUNCTION        5.64          1.001        0.079
  YS02164001           JUNCTION        5.61          0.931        0.169
  YS02001647           JUNCTION        5.46          0.805        0.095
  YS02006553           JUNCTION        1.61          0.965        0.225
  YS02006561           JUNCTION        0.67          0.279        0.871
  YS02006556           JUNCTION        1.24          0.881        0.469
  YS02006558           JUNCTION        1.20          0.858        0.542
  YS02001783           JUNCTION        1.47          0.669        0.931
  YS02001784           JUNCTION        1.55          0.618        0.872
  YS02001786           JUNCTION        1.47          0.461        0.969
  YS02001788           JUNCTION        1.46          0.332        1.148
  YS02001790           JUNCTION        4.45          0.699        0.458
  YS02001791           JUNCTION        4.60          0.480        1.440
  YS02001793           JUNCTION        5.06          0.824        1.776
  
  
  *********************
  Node Flooding Summary
  *********************
  
  Flooding refers to all water that overflows a node, whether it ponds or not.
  --------------------------------------------------------------------------
                                                             Total   Maximum
                                 Maximum   Time of Max       Flood    Ponded
                        Hours       Rate    Occurrence      Volume     Depth
  Node                 Flooded       LPS   days hr:min    10^6 ltr    Meters
  --------------------------------------------------------------------------
  YS02001779              2.72    420.06      0  03:28       1.408     0.000
  YS02001890              0.01      0.22      0  03:01       0.000     0.000
  YS02001907              0.38    277.61      0  02:58       0.212     0.000
  YS02001644              4.75   1125.61      0  03:26       7.602     0.000
  YS02001652              0.01     17.29      0  03:04       0.000     0.000
  YS02001655              0.01     21.14      0  03:04       0.000     0.000
  YS02001658              0.01     10.57      0  03:04       0.000     0.000
  YS02001661              0.01    160.23      0  03:04       0.000     0.000
  YS02001649              0.03     46.58      0  03:04       0.002     0.000
  YS02001625              0.87    169.16      0  03:01       0.244     0.000
  JK-storage              4.06    965.67      0  03:00       6.631     0.000
  XR-storage              6.87    595.08      0  03:01       7.035     0.000
  
  
  **********************
  Storage Volume Summary
  **********************
  
  --------------------------------------------------------------------------------------------------
                         Average     Avg  Evap Exfil       Maximum     Max    Time of Max    Maximum
                          Volume    Pcnt  Pcnt  Pcnt        Volume    Pcnt     Occurrence    Outflow
  Storage Unit           1000 m3    Full  Loss  Loss       1000 m3    Full    days hr:min        LPS
  --------------------------------------------------------------------------------------------------
  JK-storage               0.248      85     0     0         0.291     100       0  02:22     371.06
  CC-storage               2.929      19     0     0         3.908      25       0  03:24     399.92
  XR-storage               0.922      99     0     0         0.926     100       0  00:58     190.00
  
  
  ***********************
  Outfall Loading Summary
  ***********************
  
  -----------------------------------------------------------
                         Flow       Avg       Max       Total
                         Freq      Flow      Flow      Volume
  Outfall Node           Pcnt       LPS       LPS    10^6 ltr
  -----------------------------------------------------------
  WSC                  100.00    320.08    737.72       8.183
  3                     41.08    100.71    214.48       0.758
  4                      5.18     55.73    184.02       0.052
  5                      0.00      0.00      0.00       0.000
  -----------------------------------------------------------
  System                36.56    476.53    943.79       8.993
  
  
  ********************
  Link Flow Summary
  ********************
  
  -----------------------------------------------------------------------------
                                 Maximum  Time of Max   Maximum    Max/    Max/
                                  |Flow|   Occurrence   |Veloc|    Full    Full
  Link                 Type          LPS  days hr:min     m/sec    Flow   Depth
  -----------------------------------------------------------------------------
  WS02003066WSF200     CONDUIT    624.43     0  03:00      2.94    0.11    0.24
  WS02006287WS02006284 CONDUIT    375.43     0  03:02      1.98    0.17    0.29
  WS02006284WS02006280 CONDUIT    375.54     0  03:02      2.22    0.16    0.27
  WS02006280WS02006229 CONDUIT    375.57     0  03:02      3.58    0.08    0.19
  WS02006229WS02006228 CONDUIT    613.46     0  02:54      1.22    2.03    1.00
  WS02006256WS02006235 CONDUIT    149.70     0  01:35      2.14    1.58    1.00
  WS02006253WS02006251 CONDUIT     96.41     0  02:59      0.57    0.29    0.96
  WS02006252WS02006251 CONDUIT    399.63     0  02:50      3.18    1.47    1.00
  WS02006251WS02006249 CONDUIT    453.08     0  02:50      1.24    1.31    0.93
  WS02006249WS02006248 CONDUIT    354.27     0  04:30      1.17    1.94    0.90
  WS02006248WS02006247 CONDUIT    350.40     0  04:30      1.15    0.76    0.96
  WS02006247WS02006245 CONDUIT    346.21     0  04:31      1.12    2.75    0.99
  WS02006245WS02006243 CONDUIT    341.76     0  04:31      1.17    1.01    1.00
  WS02006243WS02006242 CONDUIT    333.47     0  04:31      1.05    0.71    1.00
  WS02006242WS02006240 CONDUIT    325.00     0  04:32      0.99    1.29    1.00
  WS02006240WS02006239 CONDUIT    315.44     0  04:32      1.04    0.99    1.00
  WS02006239WS02006238 CONDUIT    312.86     0  04:32      0.93    1.00    1.00
  WS02006238WS02006235 CONDUIT    312.06     0  04:32      0.93    0.70    1.00
  WS02006235WS02006234 CONDUIT    305.73     0  04:33      1.00    3.23    1.00
  WS02006234WS02006232 CONDUIT    303.14     0  03:14      0.88    0.61    1.00
  WS02006232WS02006231 CONDUIT    303.30     0  03:14      0.93    0.64    1.00
  WS02006231WS02006230 CONDUIT    306.89     0  03:15      1.28    4.66    1.00
  WS02006230WS02006229 CONDUIT    321.64     0  03:15      0.84    7.16    1.00
  WS02006228WS02006109 CONDUIT    613.39     0  02:54      1.22    2.68    1.00
  WS02006116WS02004401 CONDUIT    626.73     0  02:55      0.83    0.86    0.92
  WS02006115WS02006116 CONDUIT    627.81     0  02:54      0.95    0.81    0.84
  WS02006113WS02006111 CONDUIT    645.79     0  02:53      2.58    0.77    0.50
  WS02006112WS02006115 CONDUIT    639.85     0  02:53      0.86    0.38    0.91
  WS02006111WS02006112 CONDUIT    620.75     0  02:53      1.69    0.30    0.69
  WS02006110WS02006113 CONDUIT    615.64     0  02:54      1.42    0.56    0.81
  WS02006109WS02006110 CONDUIT    614.65     0  02:54      1.22    1.18    1.00
  WS02004411WS02004412 CONDUIT    624.47     0  02:59      1.05    0.89    0.74
  WS02004401WS02004402 CONDUIT    626.89     0  02:56      0.82    0.75    0.94
  WS02004413WS02003067 CONDUIT    624.38     0  03:00      1.21    0.27    0.63
  WS02004412WS02004413 CONDUIT    624.48     0  02:59      1.00    0.42    0.82
  WS02004410WS02004411 CONDUIT    624.67     0  02:59      1.00    0.85    0.74
  WS02004409WS02004410 CONDUIT    624.88     0  02:59      1.02    0.81    0.73
  WS02004407WS02004409 CONDUIT    625.58     0  02:57      1.52    0.22    0.52
  WS02004406WS02004407 CONDUIT    625.97     0  02:57      1.14    0.28    0.66
  WS02004405WS02004406 CONDUIT    625.49     0  02:57      0.80    1.23    1.00
  WS02004404WS02004405 CONDUIT    625.38     0  02:57      0.80    6.13    1.00
  WS02004403WS02004404 CONDUIT    625.23     0  02:56      0.80    0.45    0.98
  WS02004402WS02004403 CONDUIT    626.76     0  02:56      0.81    0.90    0.95
  WS02004139WS02001211 CONDUIT    190.16     0  06:10      0.53    0.24    0.44
  WS02004138WS02004139 CONDUIT    190.00     0  06:03      2.39    0.04    0.32
  WS02003067WS02003066 CONDUIT    624.43     0  03:00      1.31    0.20    0.44
  WS02001213WS02003059 CONDUIT    198.49     0  06:10      0.45    0.33    0.65
  WS02001212WS02001213 CONDUIT    197.27     0  06:10      1.03    0.30    0.32
  WS02001211WS02001212 CONDUIT    197.34     0  06:10      0.54    0.15    0.48
  WS02003072WS02003073 CONDUIT    735.80     0  03:05      1.58    1.59    0.43
  WS02003069WS02003072 CONDUIT    735.75     0  03:04      1.50    0.35    0.45
  WS02003060WS02003069 CONDUIT    735.60     0  03:04      1.76    0.29    0.40
  WS02003059WS02003060 CONDUIT    200.70     0  06:10      0.63    0.13    0.57
  HS02004901HS02004770 CONDUIT     17.70     0  03:01      0.06    0.07    0.39
  HS02004876HS02004881 CONDUIT     71.89     0  03:01      0.92    0.76    0.11
  HS02004870HS02004876 CONDUIT     58.03     0  03:01      0.63    0.04    0.13
  HS02004842HS02004848 CONDUIT     11.42     0  03:01      0.05    0.01    0.30
  HS02004837HS02004842 CONDUIT     11.94     0  03:02      0.42    0.01    0.32
  HS02004830HS02004837 CONDUIT     41.69     0  03:01      0.56    0.04    0.11
  HS02004824HS02004830 CONDUIT     41.66     0  03:01      0.58    0.05    0.10
  HS02004817HS02004824 CONDUIT     81.58     0  03:01      0.25    0.04    0.47
  HS02004770HS02004777 CONDUIT     90.20     0  03:01      0.32    0.16    0.41
  HS02004799HS02004480 CONDUIT    226.97     0  03:01      0.78    0.29    0.42
  HS02004792HS02004799 CONDUIT    206.59     0  03:01      0.88    0.13    0.33
  HS02004788HS02004792 CONDUIT    118.94     0  03:01      1.01    0.08    0.17
  HS02004785HS02004788 CONDUIT     89.51     0  03:02      0.66    0.67    0.19
  HS02004777HS02004785 CONDUIT     89.64     0  03:01      0.38    0.11    0.33
  HS02004480HS02004478 CONDUIT    269.11     0  03:01      1.20    1.13    0.32
  HS02004479HS02004480 CONDUIT     44.16     0  03:02      0.23    0.04    0.40
  HS02004862HS02004870 CONDUIT     44.23     0  03:01      0.64    0.05    0.10
  HS02004848HS02004852 CONDUIT     20.44     0  03:01      0.44    0.02    0.07
  HS02004856HS02004862 CONDUIT     30.57     0  03:01      0.47    0.03    0.09
  HS02004852HS02004856 CONDUIT     20.26     0  03:01      0.24    0.02    0.12
  HS02004802HS02004478 CONDUIT    106.59     0  03:02      0.45    0.09    0.35
  HS02004478WS02006287 CONDUIT    375.26     0  03:01      1.68    0.11    0.25
  HS02004817HS02004807 CONDUIT     82.18     0  03:01      0.19    0.05    0.62
  HS02004807HS02004802 CONDUIT    106.48     0  03:01      0.38    0.20    0.40
  YS02001759YS02001757 CONDUIT    634.93     0  02:52      0.81    0.45    1.00
  YS02001762YS02001759 CONDUIT    323.26     0  02:52      0.41    0.37    1.00
  YS02001765YS02001762 CONDUIT    322.98     0  02:52      0.41    0.30    1.00
  YS02001770YS02001767 CONDUIT    322.15     0  02:52      0.41    1.28    1.00
  YS02001774YS02001770 CONDUIT    419.04     0  03:29      0.53    0.27    1.00
  YS02001779YS02001774 CONDUIT    420.49     0  03:28      0.54    0.21    1.00
  YS02001649YS02001757 CONDUIT    903.81     0  02:49      1.15    0.55    1.00
  YS02001767YS02001765 CONDUIT    322.81     0  02:52      0.41    0.41    1.00
  YS02006561YS02001783 CONDUIT    964.50     0  03:00      2.00    0.50    1.00
  YS02001783YS02001784 CONDUIT    964.81     0  03:00      1.92    1.33    1.00
  YS02001784YS02001785 CONDUIT    965.65     0  03:00      1.92    2.25    1.00
  YS02001788YS02001790 CONDUIT    966.14     0  03:00      2.07    0.71    1.00
  YS02001790YS02001791 CONDUIT    965.94     0  03:00      2.44    1.05    1.00
  YS02001791YS02001793 CONDUIT    966.16     0  03:00      4.83    0.41    1.00
  YS02001910YS02001907 CONDUIT    432.02     0  02:54      0.55    0.24    1.00
  YS02001786YS02001788 CONDUIT    965.72     0  03:00      2.01    1.86    1.00
  YS02001915YS02001910 CONDUIT    432.17     0  02:54      0.55    0.21    1.00
  YS02001918YS02001915 CONDUIT    198.68     0  02:54      0.44    0.11    1.00
  YS02001923YS02001920 CONDUIT    195.60     0  02:54      0.68    0.09    1.00
  YS02001926YS02001923 CONDUIT    206.87     0  02:54      0.79    0.30    0.89
  YS02001929YS02001926 CONDUIT    174.07     0  02:54      0.84    0.08    0.79
  YS02001920YS02001918 CONDUIT    198.49     0  02:54      0.67    0.19    1.00
  YS02001629YS02163301 CONDUIT    201.21     0  02:47      0.26    0.25    1.00
  YS02001619YS02001622 CONDUIT    257.53     0  03:01      0.61    0.38    1.00
  YS02001622YS02001625 CONDUIT    257.22     0  03:01      0.33    0.14    1.00
  YS02001625YS02001629 CONDUIT    200.95     0  02:47      0.26    0.10    1.00
  YS02163301YS02001633 CONDUIT    201.48     0  02:47      0.26    0.19    1.00
  YS02163601YS02164001 CONDUIT    423.48     0  02:47      0.54    0.38    1.00
  YS02164001YS02001641 CONDUIT    423.62     0  02:47      0.54    0.58    1.00
  YS02001641YS02001644 CONDUIT    423.65     0  02:47      0.54    1.37    1.00
  YS02001647YS02001649 CONDUIT    642.18     0  02:47      0.82    0.34    1.00
  YS02006553YS02006556 CONDUIT    666.79     0  03:17      0.85    0.57    1.00
  YS02006556YS02006558 CONDUIT    667.45     0  03:17      0.85    0.53    1.00
  YSB6556YSB1171       CONDUIT     24.81     0  03:03      0.09    0.03    0.67
  YS02001907YS02006553 CONDUIT    666.98     0  03:17      0.74    0.78    1.00
  YS02006558YS02006561 CONDUIT    964.79     0  03:00      3.41    2.13    1.00
  YS02001633YS02163601 CONDUIT    423.30     0  02:47      0.54    0.44    1.00
  YS02001644YS02001647 CONDUIT    642.26     0  02:47      0.82    0.38    1.00
  YS02001745YS02001748 CONDUIT    537.17     0  02:40      1.48    0.21    0.95
  YS02001748YS02001751 CONDUIT    307.31     0  03:01      1.05    0.16    1.00
  YS02001751YS02001754 CONDUIT    307.22     0  03:01      0.88    0.15    1.00
  YS02001754YS02001757 CONDUIT    307.29     0  03:01      0.39    0.12    1.00
  YS02001882YS02001884 CONDUIT     16.41     0  02:45      0.09    0.02    1.00
  YS02001884YS02001887 CONDUIT     21.80     0  02:43      0.05    0.03    1.00
  YS02001890YS02001895 CONDUIT    453.51     0  03:01      0.58    0.21    1.00
  YS02001895YS02001898 CONDUIT    453.77     0  03:01      0.58    0.79    1.00
  YS02001898YS02001901 CONDUIT    454.16     0  03:01      0.58    0.29    1.00
  YS02001901YS02001904 CONDUIT    454.08     0  03:00      0.58    0.70    1.00
  YS02001904YS02001907 CONDUIT    454.07     0  03:01      0.58    0.16    1.00
  YS02001887YS02001890 CONDUIT    453.57     0  03:01      0.58    0.78    1.00
  YS02001652YS02001649 CONDUIT    372.61     0  03:02      0.50    0.18    1.00
  YS02001655YS02001652 CONDUIT    371.08     0  03:02      0.93    0.18    1.00
  YS02001658YS02001655 CONDUIT    370.05     0  03:02      1.21    0.16    1.00
  YS02001661YS02001658 CONDUIT    499.76     0  02:39      1.56    0.20    1.00
  YS02001664YS02001661 CONDUIT    686.43     0  02:51      1.51    0.22    0.74
  YSB1154YSB6556       CONDUIT     24.91     0  03:01      0.19    0.04    0.56
  YSB1174YSB1171       CONDUIT     18.77     0  03:01      0.07    0.03    0.68
  YSB1171HS02004479    CONDUIT     42.82     0  03:02      0.54    0.03    0.53
  HS02004881HS02006253 CONDUIT     79.15     0  03:01      2.19    0.02    0.28
  YS02001793JiankangQianchi CONDUIT    966.30     0  03:00     12.18    0.08    1.00
  YS02001757CaochengTiaoxuchi CONDUIT   1717.79     0  02:49      2.24    0.75    1.00
  WSF200WS02003060     CONDUIT    624.04     0  03:00      2.15    0.14    0.32
  1                    CONDUIT    737.72     0  03:06      3.06    0.26    0.35
  2                    CONDUIT    184.02     0  02:50      5.72    0.44    0.47
  3                    CONDUIT    214.48     0  03:10      7.99    0.34    0.41
  4                    CONDUIT      0.00     0  00:00      0.00    0.00    0.00
  CC-Pump-1            PUMP       200.00     0  01:59              1.00
  CC-Pump-2            PUMP       200.00     0  07:10              1.00
  JK-Pump-1            PUMP       300.00     0  06:10              1.00
  JK-Pump-2            PUMP       300.00     0  07:40              1.00
  XR-Pump-1            PUMP        95.00     0  00:20              1.00
  XR-Pump-2            PUMP        94.99     0  02:00              1.00
  XR-Pump-3            PUMP        94.98     0  06:10              1.00
  XR-Pump-4            PUMP        95.00     0  00:00              1.00
  
  
  ***************************
  Flow Classification Summary
  ***************************
  
  -------------------------------------------------------------------------------------
                      Adjusted    ---------- Fraction of Time in Flow Class ---------- 
                       /Actual         Up    Down  Sub   Sup   Up    Down  Norm  Inlet 
  Conduit               Length    Dry  Dry   Dry   Crit  Crit  Crit  Crit  Ltd   Ctrl  
  -------------------------------------------------------------------------------------
  WS02003066WSF200        1.00   0.09  0.00  0.00  0.00  0.91  0.00  0.00  0.66  0.00
  WS02006287WS02006284    1.00   0.02  0.02  0.00  0.61  0.35  0.00  0.00  0.65  0.00
  WS02006284WS02006280    1.00   0.03  0.00  0.00  0.00  0.00  0.00  0.97  0.00  0.00
  WS02006280WS02006229    1.00   0.03  0.00  0.00  0.00  0.00  0.00  0.97  0.00  0.00
  WS02006229WS02006228    1.00   0.00  0.00  0.00  1.00  0.00  0.00  0.00  0.00  0.00
  WS02006256WS02006235    1.00   0.04  0.00  0.00  0.96  0.00  0.00  0.00  0.00  0.00
  WS02006253WS02006251    1.00   0.01  0.01  0.00  0.97  0.00  0.00  0.00  0.00  0.00
  WS02006252WS02006251    1.00   0.09  0.00  0.00  0.00  0.00  0.91  0.00  0.00  0.00
  WS02006251WS02006249    1.00   0.00  0.00  0.00  1.00  0.00  0.00  0.00  0.39  0.00
  WS02006249WS02006248    1.00   0.00  0.00  0.00  0.75  0.00  0.24  0.00  0.00  0.00
  WS02006248WS02006247    1.00   0.00  0.00  0.00  0.98  0.00  0.00  0.01  0.30  0.00
  WS02006247WS02006245    1.00   0.01  0.00  0.00  0.96  0.00  0.00  0.03  0.00  0.00
  WS02006245WS02006243    1.00   0.01  0.00  0.00  0.91  0.00  0.00  0.08  0.02  0.00
  WS02006243WS02006242    1.00   0.01  0.00  0.00  0.96  0.00  0.00  0.03  0.17  0.00
  WS02006242WS02006240    1.00   0.01  0.03  0.00  0.95  0.00  0.01  0.00  0.00  0.00
  WS02006240WS02006239    1.00   0.04  0.00  0.00  0.91  0.00  0.00  0.05  0.01  0.00
  WS02006239WS02006238    1.00   0.04  0.00  0.00  0.96  0.00  0.00  0.00  0.00  0.00
  WS02006238WS02006235    1.00   0.04  0.00  0.00  0.96  0.00  0.00  0.00  0.00  0.00
  WS02006235WS02006234    1.00   0.04  0.00  0.00  0.94  0.00  0.01  0.00  0.00  0.00
  WS02006234WS02006232    1.00   0.04  0.00  0.00  0.95  0.00  0.00  0.00  0.00  0.00
  WS02006232WS02006231    1.00   0.04  0.00  0.00  0.95  0.00  0.00  0.00  0.00  0.00
  WS02006231WS02006230    1.00   0.05  0.00  0.00  0.27  0.00  0.69  0.00  0.00  0.00
  WS02006230WS02006229    1.00   0.00  0.00  0.00  0.99  0.00  0.00  0.01  0.01  0.00
  WS02006228WS02006109    1.00   0.00  0.00  0.00  1.00  0.00  0.00  0.00  0.01  0.00
  WS02006116WS02004401    1.00   0.03  0.00  0.00  0.97  0.00  0.00  0.00  0.01  0.00
  WS02006115WS02006116    1.00   0.02  0.00  0.00  0.94  0.00  0.00  0.04  0.00  0.00
  WS02006113WS02006111    1.00   0.01  0.00  0.00  0.01  0.98  0.00  0.00  0.18  0.00
  WS02006112WS02006115    1.00   0.02  0.01  0.00  0.97  0.00  0.00  0.00  0.00  0.00
  WS02006111WS02006112    1.00   0.02  0.00  0.00  0.98  0.00  0.00  0.00  0.90  0.00
  WS02006110WS02006113    1.00   0.00  0.01  0.00  0.99  0.00  0.00  0.00  0.00  0.00
  WS02006109WS02006110    1.00   0.00  0.00  0.00  0.99  0.00  0.00  0.00  0.00  0.00
  WS02004411WS02004412    1.00   0.08  0.00  0.00  0.92  0.00  0.00  0.00  0.00  0.00
  WS02004401WS02004402    1.00   0.03  0.00  0.00  0.97  0.00  0.00  0.00  0.04  0.00
  WS02004413WS02003067    1.00   0.08  0.01  0.00  0.00  0.00  0.91  0.00  0.00  0.00
  WS02004412WS02004413    1.00   0.08  0.00  0.00  0.92  0.00  0.00  0.00  0.00  0.00
  WS02004410WS02004411    1.00   0.08  0.00  0.00  0.92  0.00  0.00  0.00  0.00  0.00
  WS02004409WS02004410    1.00   0.07  0.00  0.00  0.93  0.00  0.00  0.00  0.00  0.00
  WS02004407WS02004409    1.00   0.07  0.00  0.00  0.92  0.01  0.00  0.00  0.77  0.00
  WS02004406WS02004407    1.00   0.00  0.07  0.00  0.93  0.00  0.00  0.00  0.00  0.00
  WS02004405WS02004406    1.00   0.00  0.00  0.00  1.00  0.00  0.00  0.00  0.04  0.00
  WS02004404WS02004405    1.00   0.00  0.00  0.00  1.00  0.00  0.00  0.00  0.00  0.00
  WS02004403WS02004404    1.00   0.00  0.03  0.00  0.97  0.00  0.00  0.00  0.04  0.00
  WS02004402WS02004403    1.00   0.03  0.00  0.00  0.97  0.00  0.00  0.00  0.00  0.00
  WS02004139WS02001211    1.00   0.00  0.00  0.00  1.00  0.00  0.00  0.00  0.00  0.00
  WS02004138WS02004139    1.00   0.00  0.00  0.00  1.00  0.00  0.00  0.00  1.00  0.00
  WS02003067WS02003066    1.00   0.09  0.00  0.00  0.91  0.00  0.00  0.00  0.00  0.00
  WS02001213WS02003059    1.00   0.00  0.00  0.00  1.00  0.00  0.00  0.00  0.00  0.00
  WS02001212WS02001213    1.00   0.00  0.00  0.00  0.35  0.00  0.65  0.00  0.00  0.00
  WS02001211WS02001212    1.00   0.00  0.00  0.00  1.00  0.00  0.00  0.00  0.00  0.00
  WS02003072WS02003073    1.00   0.00  0.00  0.00  0.00  0.00  0.00  1.00  0.00  0.00
  WS02003069WS02003072    1.00   0.00  0.00  0.00  1.00  0.00  0.00  0.00  0.72  0.00
  WS02003060WS02003069    1.00   0.00  0.00  0.00  0.97  0.03  0.00  0.00  0.44  0.00
  WS02003059WS02003060    1.00   0.00  0.00  0.00  1.00  0.00  0.00  0.00  0.02  0.00
  HS02004901HS02004770    1.00   0.03  0.00  0.00  0.97  0.00  0.00  0.00  0.00  0.00
  HS02004876HS02004881    1.00   0.00  0.00  0.00  0.90  0.10  0.00  0.00  0.00  0.00
  HS02004870HS02004876    1.00   0.00  0.00  0.00  1.00  0.00  0.00  0.00  0.95  0.00
  HS02004842HS02004848    1.00   0.00  0.03  0.00  0.97  0.00  0.00  0.00  0.58  0.00
  HS02004837HS02004842    1.00   0.00  0.00  0.00  1.00  0.00  0.00  0.00  0.11  0.00
  HS02004830HS02004837    1.00   0.00  0.00  0.00  1.00  0.00  0.00  0.00  0.99  0.00
  HS02004824HS02004830    1.00   0.00  0.00  0.00  1.00  0.00  0.00  0.00  0.00  0.00
  HS02004817HS02004824    1.00   0.00  0.00  0.00  1.00  0.00  0.00  0.00  1.00  0.00
  HS02004770HS02004777    1.00   0.00  0.03  0.00  0.97  0.00  0.00  0.00  0.03  0.00
  HS02004799HS02004480    1.00   0.00  0.01  0.00  0.96  0.00  0.03  0.00  0.00  0.00
  HS02004792HS02004799    1.00   0.00  0.00  0.00  1.00  0.00  0.00  0.00  0.98  0.00
  HS02004788HS02004792    1.00   0.00  0.00  0.00  1.00  0.00  0.00  0.00  0.98  0.00
  HS02004785HS02004788    1.00   0.00  0.00  0.00  1.00  0.00  0.00  0.00  0.00  0.00
  HS02004777HS02004785    1.00   0.00  0.00  0.00  1.00  0.00  0.00  0.00  0.14  0.00
  HS02004480HS02004478    1.00   0.03  0.00  0.00  0.65  0.00  0.00  0.32  0.00  0.00
  HS02004479HS02004480    1.00   0.01  0.00  0.00  0.99  0.00  0.00  0.00  0.13  0.00
  HS02004862HS02004870    1.00   0.00  0.00  0.00  1.00  0.00  0.00  0.00  0.05  0.00
  HS02004848HS02004852    1.00   0.03  0.00  0.00  0.97  0.00  0.00  0.00  0.61  0.00
  HS02004856HS02004862    1.00   0.00  0.05  0.00  0.95  0.00  0.00  0.00  0.80  0.00
  HS02004852HS02004856    1.00   0.03  0.00  0.00  0.97  0.00  0.00  0.00  0.85  0.00
  HS02004802HS02004478    1.00   0.03  0.00  0.00  0.97  0.00  0.00  0.00  0.03  0.00
  HS02004478WS02006287    1.00   0.04  0.00  0.00  0.71  0.25  0.00  0.00  0.66  0.00
  HS02004817HS02004807    1.00   0.00  0.03  0.00  0.97  0.00  0.00  0.00  0.01  0.00
  HS02004807HS02004802    1.00   0.03  0.00  0.00  0.97  0.00  0.00  0.00  0.00  0.00
  YS02001759YS02001757    1.00   0.00  0.00  0.00  1.00  0.00  0.00  0.00  0.16  0.00
  YS02001762YS02001759    1.00   0.00  0.00  0.00  1.00  0.00  0.00  0.00  0.04  0.00
  YS02001765YS02001762    1.00   0.00  0.00  0.00  1.00  0.00  0.00  0.00  0.16  0.00
  YS02001770YS02001767    1.00   0.00  0.00  0.00  1.00  0.00  0.00  0.00  0.00  0.00
  YS02001774YS02001770    1.00   0.00  0.03  0.00  0.97  0.00  0.00  0.00  0.04  0.00
  YS02001779YS02001774    1.00   0.00  0.00  0.00  1.00  0.00  0.00  0.00  0.21  0.00
  YS02001649YS02001757    1.00   0.00  0.00  0.00  1.00  0.00  0.00  0.00  0.17  0.00
  YS02001767YS02001765    1.00   0.00  0.00  0.00  1.00  0.00  0.00  0.00  0.00  0.00
  YS02006561YS02001783    1.00   0.05  0.00  0.00  0.66  0.29  0.00  0.00  0.57  0.00
  YS02001783YS02001784    1.00   0.00  0.05  0.00  0.95  0.00  0.00  0.00  0.01  0.00
  YS02001784YS02001785    1.00   0.00  0.00  0.00  1.00  0.00  0.00  0.00  0.20  0.00
  YS02001788YS02001790    1.00   0.00  0.00  0.00  0.80  0.20  0.00  0.00  0.32  0.00
  YS02001790YS02001791    1.00   0.00  0.00  0.00  0.77  0.23  0.00  0.00  0.11  0.00
  YS02001791YS02001793    1.00   0.00  0.00  0.00  0.83  0.17  0.00  0.00  0.04  0.00
  YS02001910YS02001907    1.00   0.00  0.00  0.00  0.99  0.00  0.00  0.01  0.13  0.00
  YS02001786YS02001788    1.00   0.00  0.00  0.00  0.75  0.25  0.00  0.00  0.00  0.00
  YS02001915YS02001910    1.00   0.00  0.00  0.00  0.99  0.01  0.00  0.00  0.18  0.00
  YS02001918YS02001915    1.00   0.00  0.00  0.00  1.00  0.00  0.00  0.00  0.58  0.00
  YS02001923YS02001920    1.00   0.00  0.00  0.00  1.00  0.00  0.00  0.00  0.85  0.00
  YS02001926YS02001923    1.00   0.00  0.02  0.00  0.13  0.00  0.85  0.00  0.00  0.00
  YS02001929YS02001926    1.00   0.00  0.03  0.00  0.97  0.00  0.00  0.00  0.78  0.00
  YS02001920YS02001918    1.00   0.00  0.00  0.00  1.00  0.00  0.00  0.00  0.00  0.00
  YS02001629YS02163301    1.00   0.04  0.00  0.00  0.96  0.00  0.00  0.00  0.00  0.00
  YS02001619YS02001622    1.00   0.03  0.00  0.00  0.97  0.00  0.00  0.00  0.00  0.00
  YS02001622YS02001625    1.00   0.03  0.00  0.00  0.97  0.00  0.00  0.00  0.07  0.00
  YS02001625YS02001629    1.00   0.03  0.03  0.00  0.91  0.00  0.04  0.00  0.00  0.00
  YS02163301YS02001633    1.00   0.00  0.04  0.00  0.96  0.00  0.00  0.00  0.00  0.00
  YS02163601YS02164001    1.00   0.00  0.02  0.00  0.98  0.00  0.00  0.00  0.00  0.00
  YS02164001YS02001641    1.00   0.00  0.02  0.00  0.98  0.00  0.00  0.00  0.06  0.00
  YS02001641YS02001644    1.00   0.00  0.00  0.00  1.00  0.00  0.00  0.00  0.00  0.00
  YS02001647YS02001649    1.00   0.00  0.05  0.00  0.95  0.00  0.00  0.00  0.01  0.00
  YS02006553YS02006556    1.00   0.00  0.00  0.00  1.00  0.00  0.00  0.00  0.03  0.00
  YS02006556YS02006558    1.00   0.00  0.00  0.00  1.00  0.00  0.00  0.00  0.00  0.00
  YSB6556YSB1171          1.00   0.01  0.02  0.00  0.97  0.00  0.00  0.00  0.00  0.00
  YS02001907YS02006553    1.00   0.00  0.00  0.00  0.99  0.00  0.00  0.00  0.00  0.00
  YS02006558YS02006561    1.00   0.05  0.00  0.00  0.16  0.79  0.00  0.00  0.50  0.00
  YS02001633YS02163601    1.00   0.00  0.00  0.00  1.00  0.00  0.00  0.00  0.16  0.00
  YS02001644YS02001647    1.00   0.00  0.05  0.00  0.95  0.00  0.00  0.00  0.00  0.00
  YS02001745YS02001748    1.00   0.00  0.00  0.00  0.85  0.01  0.00  0.13  0.04  0.00
  YS02001748YS02001751    1.00   0.00  0.00  0.00  0.94  0.06  0.00  0.00  0.15  0.00
  YS02001751YS02001754    1.00   0.00  0.00  0.00  0.93  0.00  0.00  0.07  0.02  0.00
  YS02001754YS02001757    1.00   0.00  0.00  0.00  1.00  0.00  0.00  0.00  0.20  0.00
  YS02001882YS02001884    1.00   0.04  0.00  0.00  0.96  0.00  0.00  0.00  0.00  0.00
  YS02001884YS02001887    1.00   0.01  0.01  0.00  0.97  0.00  0.00  0.00  0.00  0.00
  YS02001890YS02001895    1.00   0.00  0.04  0.00  0.96  0.00  0.00  0.00  0.00  0.00
  YS02001895YS02001898    1.00   0.04  0.00  0.00  0.94  0.00  0.02  0.00  0.00  0.00
  YS02001898YS02001901    1.00   0.04  0.00  0.00  0.96  0.00  0.00  0.00  0.02  0.00
  YS02001901YS02001904    1.00   0.04  0.00  0.00  0.96  0.00  0.00  0.00  0.00  0.00
  YS02001904YS02001907    1.00   0.00  0.04  0.00  0.96  0.00  0.00  0.00  0.00  0.00
  YS02001887YS02001890    1.00   0.00  0.00  0.00  0.99  0.00  0.01  0.00  0.00  0.00
  YS02001652YS02001649    1.00   0.00  0.00  0.00  1.00  0.00  0.00  0.00  0.18  0.00
  YS02001655YS02001652    1.00   0.00  0.00  0.00  0.93  0.01  0.00  0.06  0.02  0.00
  YS02001658YS02001655    1.00   0.00  0.03  0.00  0.91  0.06  0.00  0.00  0.11  0.00
  YS02001661YS02001658    1.00   0.03  0.00  0.00  0.85  0.11  0.00  0.00  0.05  0.00
  YS02001664YS02001661    1.00   0.03  0.00  0.00  0.88  0.09  0.00  0.00  0.22  0.00
  YSB1154YSB6556          1.00   0.03  0.00  0.00  0.97  0.00  0.00  0.00  0.02  0.00
  YSB1174YSB1171          1.00   0.01  0.01  0.00  0.98  0.00  0.00  0.00  0.00  0.00
  YSB1171HS02004479       1.00   0.01  0.00  0.00  0.99  0.00  0.00  0.00  0.11  0.00
  HS02004881HS02006253    1.00   0.01  0.00  0.00  0.45  0.06  0.00  0.48  0.32  0.00
  YS02001793JiankangQianchi    1.00   0.00  0.00  0.00  0.94  0.06  0.00  0.00  0.25  0.00
  YS02001757CaochengTiaoxuchi    1.00   0.00  0.09  0.00  0.91  0.00  0.00  0.00  0.00  0.00
  WSF200WS02003060        1.00   0.00  0.09  0.00  0.32  0.58  0.00  0.00  0.30  0.00
  1                       1.00   0.00  0.00  0.00  0.00  1.00  0.00  0.00  0.29  0.00
  2                       1.00   0.95  0.00  0.00  0.00  0.05  0.00  0.00  0.01  0.00
  3                       1.00   0.59  0.00  0.00  0.00  0.41  0.00  0.00  0.37  0.00
  4                       1.00   1.00  0.00  0.00  0.00  0.00  0.00  0.00  0.00  0.00
  
  
  *************************
  Conduit Surcharge Summary
  *************************
  
  ----------------------------------------------------------------------------
                                                           Hours        Hours 
                         --------- Hours Full --------   Above Full   Capacity
  Conduit                Both Ends  Upstream  Dnstream   Normal Flow   Limited
  ----------------------------------------------------------------------------
  WS02006229WS02006228        1.16      1.19      1.16      1.67         1.16
  WS02006256WS02006235        4.80      4.80      6.32      1.85         0.01
  WS02006252WS02006251        0.09      0.09      0.25      0.21         0.01
  WS02006251WS02006249        0.01      0.01      0.01      0.14         0.01
  WS02006249WS02006248        0.01      0.01      0.01      1.79         0.01
  WS02006248WS02006247        0.01      0.01      0.01      0.01         0.01
  WS02006247WS02006245        0.01      0.01      0.01      2.71         0.01
  WS02006245WS02006243        0.01      0.01      0.01      0.02         0.01
  WS02006243WS02006242        0.02      0.02      0.15      0.01         0.01
  WS02006242WS02006240        0.11      0.11      0.18      0.25         0.01
  WS02006240WS02006239        0.13      0.13      0.15      0.01         0.01
  WS02006239WS02006238        0.20      0.20      0.36      0.01         0.01
  WS02006238WS02006235        0.33      0.33      0.46      0.01         0.01
  WS02006235WS02006234        0.19      0.19      0.27      4.63         0.01
  WS02006234WS02006232        0.23      0.23      0.65      0.01         0.01
  WS02006232WS02006231        0.21      0.21      0.65      0.01         0.01
  WS02006231WS02006230        0.16      0.16      0.23      4.99         0.01
  WS02006230WS02006229        1.38      1.45      1.38      5.45         1.38
  WS02006228WS02006109        1.18      1.28      1.18      2.67         1.18
  WS02006112WS02006115        0.01      0.01      0.74      0.01         0.01
  WS02006111WS02006112        0.01      0.01      1.55      0.01         0.01
  WS02006110WS02006113        0.01      0.01      1.23      0.01         0.01
  WS02006109WS02006110        0.43      0.43      1.28      0.44         0.01
  WS02004406WS02004407        0.01      0.01      0.09      0.01         0.01
  WS02004405WS02004406        0.09      0.20      0.09      0.61         0.09
  WS02004404WS02004405        0.20      0.24      0.20      5.20         0.20
  WS02004403WS02004404        0.01      0.01      0.24      0.01         0.01
  WS02003072WS02003073        0.01      0.01      0.01      1.36         0.01
  HS02004480HS02004478        0.01      0.01      0.01      0.25         0.01
  YS02001759YS02001757        5.66      5.66      5.74      0.01         0.01
  YS02001762YS02001759        5.64      5.64      5.66      0.01         0.01
  YS02001765YS02001762        5.61      5.61      5.64      0.01         0.01
  YS02001770YS02001767        5.58      5.58      5.58      0.27         0.68
  YS02001774YS02001770        5.57      5.57      5.63      0.01         0.01
  YS02001779YS02001774        5.42      5.42      5.63      0.01         0.01
  YS02001649YS02001757        5.64      5.64      5.74      0.01         0.01
  YS02001767YS02001765        5.58      5.58      5.61      0.01         0.01
  YS02006561YS02001783        0.67      0.67      1.47      0.01         0.01
  YS02001783YS02001784        1.47      1.47      1.55      1.06         1.08
  YS02001784YS02001785        1.47      1.55      1.47      2.04         1.47
  YS02001788YS02001790        1.46      1.46      4.45      0.01         0.01
  YS02001790YS02001791        4.45      4.45      4.60      0.50         0.49
  YS02001791YS02001793        4.60      4.60      5.26      0.01         0.01
  YS02001910YS02001907        1.02      1.02      1.52      0.01         0.01
  YS02001786YS02001788        1.46      1.47      1.46      1.67         1.46
  YS02001915YS02001910        0.80      0.80      1.02      0.01         0.01
  YS02001918YS02001915        0.54      0.54      0.80      0.01         0.01
  YS02001923YS02001920        0.32      0.32      0.57      0.01         0.01
  YS02001920YS02001918        0.54      0.54      0.57      0.01         0.01
  YS02001629YS02163301        5.57      5.57      5.58      0.01         0.01
  YS02001619YS02001622        5.27      5.27      5.28      0.01         0.01
  YS02001622YS02001625        5.28      5.28      5.53      0.01         0.01
  YS02001625YS02001629        5.28      5.28      5.53      0.01         0.01
  YS02163301YS02001633        5.58      5.58      5.61      0.01         0.01
  YS02163601YS02164001        5.61      5.61      5.64      0.01         0.01
  YS02164001YS02001641        5.61      5.61      5.62      0.01         0.02
  YS02001641YS02001644        5.62      5.62      5.62      1.22         1.28
  YS02001647YS02001649        5.46      5.46      5.64      0.01         0.01
  YS02006553YS02006556        1.24      1.24      1.61      0.01         0.01
  YS02006556YS02006558        1.39      1.39      1.67      0.01         0.01
  YS02001907YS02006553        2.10      2.10      2.31      0.01         0.01
  YS02006558YS02006561        0.90      1.20      0.90      1.94         0.90
  YS02001633YS02163601        5.60      5.60      5.64      0.01         0.01
  YS02001644YS02001647        5.46      5.46      5.62      0.01         0.01
  YS02001745YS02001748        0.01      0.01      5.09      0.01         0.01
  YS02001748YS02001751        5.14      5.14      5.26      0.01         0.01
  YS02001751YS02001754        5.26      5.26      5.42      0.01         0.01
  YS02001754YS02001757        5.45      5.45      5.74      0.01         0.01
  YS02001882YS02001884        0.81      0.81      0.85      0.01         0.01
  YS02001884YS02001887        0.90      0.90      0.93      0.01         0.01
  YS02001890YS02001895        0.78      0.78      1.04      0.01         0.01
  YS02001895YS02001898        0.76      0.76      0.78      0.01         0.01
  YS02001898YS02001901        0.79      0.79      0.90      0.01         0.01
  YS02001901YS02001904        0.87      0.87      0.90      0.01         0.01
  YS02001904YS02001907        0.87      0.87      1.63      0.01         0.01
  YS02001887YS02001890        0.97      0.97      1.00      0.01         0.01
  YS02001652YS02001649        5.47      5.47      5.64      0.01         0.01
  YS02001655YS02001652        5.29      5.29      5.44      0.01         0.01
  YS02001658YS02001655        5.12      5.12      5.29      0.01         0.01
  YS02001661YS02001658        0.11      0.11      5.12      0.01         0.01
  YS02001664YS02001661        0.01      0.01      0.77      0.01         0.01
  YS02001793JiankangQianchi        5.06      5.06      7.37      0.01         0.01
  YS02001757CaochengTiaoxuchi        4.95      4.95      5.74      0.01         0.01
  
  
  ***************
  Pumping Summary
  ***************
  
  ---------------------------------------------------------------------------------------------------------
                                                  Min       Avg       Max     Total     Power    % Time Off
                        Percent   Number of      Flow      Flow      Flow    Volume     Usage    Pump Curve
  Pump                 Utilized   Start-Ups       LPS       LPS       LPS  10^6 ltr     Kw-hr    Low   High
  ---------------------------------------------------------------------------------------------------------
  CC-Pump-1               31.13           7      0.00    113.27    200.00     0.941      1.57    0.0   18.0
  CC-Pump-2               40.44           6      0.00    113.33    200.00     1.200      0.91    0.0    0.0
  JK-Pump-1               14.88           3      0.00    170.48    300.00     0.646      4.93    0.0    0.0
  JK-Pump-2               25.53           5      0.00    173.80    300.00     1.145      9.32    0.0    0.0
  XR-Pump-1               78.71           6      0.00     62.93     95.00     1.425      7.06    0.0    0.0
  XR-Pump-2               17.01           4      0.00     50.25     94.99     0.228      1.01    0.0    0.0
  XR-Pump-3                4.25           1      0.00     52.36     94.98     0.057      0.26    0.0    0.0
  XR-Pump-4               38.30           7      0.00     49.70     95.00     0.542      3.17    0.0    0.0
  

  Analysis begun on:  Thu Jan  6 20:11:50 2022
  Analysis ended on:  Thu Jan  6 20:11:52 2022
  Total elapsed time: 00:00:02