
  EPA STORM WATER MANAGEMENT MODEL - VERSION 5.1 (Build 5.3.0.dev0)
  --------------------------------------------------------------

  WARNING 04: minimum elevation drop used for Conduit WS02004404WS02004405
  WARNING 03: negative offset ignored for Link YS02001904YS02001907
  
  *********************************************************
  NOTE: The summary statistics displayed in this report are
  based on results found at every computational time step,  
  not just on results from each reporting time step.
  *********************************************************
  
  ****************
  Analysis Options
  ****************
  Flow Units ............... LPS
  Process Models:
    Rainfall/Runoff ........ YES
    RDII ................... NO
    Snowmelt ............... NO
    Groundwater ............ NO
    Flow Routing ........... YES
    Ponding Allowed ........ NO
    Water Quality .......... NO
  Infiltration Method ...... HORTON
  Flow Routing Method ...... DYNWAVE
  Surcharge Method ......... EXTRAN
  Starting Date ............ 08/28/2015 08:00:00
  Ending Date .............. 08/28/2015 15:50:00
  Antecedent Dry Days ...... 8.0
  Report Time Step ......... 00:01:00
  Wet Time Step ............ 00:01:00
  Dry Time Step ............ 00:01:00
  Routing Time Step ........ 5.00 sec
  Variable Time Step ....... YES
  Maximum Trials ........... 8
  Number of Threads ........ 4
  Head Tolerance ........... 0.001500 m
  
  
  **************************        Volume         Depth
  Runoff Quantity Continuity     hectare-m            mm
  **************************     ---------       -------
  Total Precipitation ......         5.556        12.164
  Evaporation Loss .........         0.000         0.000
  Infiltration Loss ........         1.427         3.124
  Surface Runoff ...........         3.072         6.726
  Final Storage ............         1.058         2.316
  Continuity Error (%) .....        -0.016
  
  
  **************************        Volume        Volume
  Flow Routing Continuity        hectare-m      10^6 ltr
  **************************     ---------     ---------
  Dry Weather Inflow .......         0.616         6.165
  Wet Weather Inflow .......         3.071        30.710
  Groundwater Inflow .......         0.000         0.000
  RDII Inflow ..............         0.000         0.000
  External Inflow ..........         0.102         1.024
  External Outflow .........         0.743         7.434
  Flooding Loss ............         2.479        24.788
  Evaporation Loss .........         0.000         0.000
  Exfiltration Loss ........         0.000         0.000
  Initial Stored Volume ....         0.076         0.761
  Final Stored Volume ......         0.643         6.431
  Continuity Error (%) .....         0.015
  
  
  *************************
  Highest Continuity Errors
  *************************
  Node HS02004842 (16.24%)
  Node YS02001884 (12.54%)
  Node YSB1171 (3.12%)
  Node HS02004817 (2.99%)
  Node HS02004901 (2.32%)
  
  
  ***************************
  Time-Step Critical Elements
  ***************************
  Link WS02006252WS02006251 (66.15%)
  Link WS02006280WS02006229 (10.19%)
  Link YS02006556YS02006558 (6.71%)
  Link 3 (4.79%)
  Link WS02003066WSF200 (1.98%)
  
  
  ********************************
  Highest Flow Instability Indexes
  ********************************
  Link WS02006113WS02006111 (45)
  Link YS02163601YS02164001 (36)
  Link YS02001619YS02001622 (35)
  Link YS02001629YS02163301 (35)
  Link YS02163301YS02001633 (35)
  
  
  *************************
  Routing Time Step Summary
  *************************
  Minimum Time Step           :     0.50 sec
  Average Time Step           :     1.42 sec
  Maximum Time Step           :     5.00 sec
  Percent in Steady State     :    -0.00
  Average Iterations per Step :     4.24
  Percent Not Converging      :    20.49
  
  
  ***************************
  Subcatchment Runoff Summary
  ***************************
  
  ------------------------------------------------------------------------------------------------------------------------------
                            Total      Total      Total      Total     Imperv       Perv      Total       Total     Peak  Runoff
                           Precip      Runon       Evap      Infil     Runoff     Runoff     Runoff      Runoff   Runoff   Coeff
  Subcatchment                 mm         mm         mm         mm         mm         mm         mm    10^6 ltr      LPS
  ------------------------------------------------------------------------------------------------------------------------------
  sub0                      12.16       0.00       0.00       0.85      10.05       0.00      10.05        0.01     1.91   0.826
  sub1                      12.16       0.00       0.00       1.34       9.56       0.00       9.56        0.06    14.15   0.786
  sub2                      12.16       0.00       0.00       4.50       6.75       0.00       6.75        0.06    13.75   0.555
  sub3                      12.16       0.00       0.00       4.50       6.71       0.00       6.71        0.15    32.07   0.552
  sub4                      12.16       0.00       0.00       1.34       9.40       0.00       9.40        0.20    40.20   0.773
  sub5                      12.16       0.00       0.00       0.85       9.99       0.00       9.99        0.11    25.19   0.822
  sub7                      12.16       0.00       0.00       1.09       9.81       0.00       9.81        0.03     7.55   0.807
  sub8                      12.16       0.00       0.00       1.09       9.80       0.00       9.80        0.06    14.17   0.806
  sub9                      12.16       0.00       0.00       1.09       9.80       0.00       9.80        0.05    10.64   0.806
  sub10                     12.16       0.00       0.00       0.97       9.89       0.00       9.89        0.11    24.40   0.813
  sub11                     12.16       0.00       0.00       0.97       9.91       0.00       9.91        0.12    26.15   0.815
  sub12                     12.16       0.00       0.00       1.58       9.39       0.00       9.39        0.08    19.06   0.772
  sub14                     12.16       0.00       0.00       1.09       9.80       0.00       9.80        0.09    21.02   0.805
  sub15                     12.16       0.00       0.00       3.65       7.53       0.00       7.53        0.13    29.11   0.619
  sub16                     12.16       0.00       0.00       4.01       7.23       0.00       7.23        0.08    17.47   0.594
  sub17                     12.16       0.00       0.00       3.89       7.34       0.00       7.34        0.06    14.47   0.603
  sub22                     12.16       0.00       0.00       5.23       6.14       0.00       6.14        0.39    88.27   0.505
  sub23                     12.16       0.00       0.00       4.50       6.79       0.00       6.79        0.32    73.89   0.558
  sub60                     12.16       0.00       0.00       1.46       7.71       0.00       7.71        2.34   297.17   0.634
  sub61                     12.16       0.00       0.00       2.07       7.87       0.00       7.87        2.43   359.80   0.647
  sub62                     12.16       0.00       0.00       0.97       8.55       0.00       8.55        2.63   372.87   0.703
  sub63                     12.16       0.00       0.00       3.53       6.89       0.00       6.89        2.09   327.80   0.567
  sub64                     12.16       0.00       0.00       1.82       7.40       0.00       7.40        2.25   282.66   0.608
  sub65                     12.16       0.00       0.00       1.58       7.52       0.00       7.52        2.31   287.20   0.618
  sub66                     12.16       0.00       0.00       3.53       6.36       0.00       6.36        1.95   257.27   0.523
  sub67                     12.16       0.00       0.00       0.97       9.05       0.00       9.05        2.79   452.90   0.744
  sub68                     12.16       0.00       0.00       1.70       8.28       0.00       8.28        2.55   391.99   0.681
  sub69                     12.16       0.00       0.00       1.82       8.61       0.00       8.61        2.01   355.79   0.708
  sub70                     12.16       8.79       0.00       7.03      11.43       0.10      11.53        2.64   335.00   0.550
  sub71                     12.16       0.00       0.00       0.97       8.31       0.00       8.31        1.96   263.63   0.683
  sub72                     12.16       0.00       0.00       0.85       6.56       0.00       6.56        1.34   129.40   0.540
  sub73                     12.16      11.23       0.00       7.88      12.47       0.08      12.54        2.95   300.52   0.536
  sub74                     12.16       0.00       0.00       9.12       2.57       0.00       2.57        1.03   189.59   0.211
  
  
  ******************
  Node Depth Summary
  ******************
  
  ---------------------------------------------------------------------------------
                                 Average  Maximum  Maximum  Time of Max    Reported
                                   Depth    Depth      HGL   Occurrence   Max Depth
  Node                 Type       Meters   Meters   Meters  days hr:min      Meters
  ---------------------------------------------------------------------------------
  WS02001211           JUNCTION     0.49     0.67     5.51     0  05:31        0.67
  WS02001212           JUNCTION     0.24     0.39     5.45     0  05:31        0.38
  WS02001213           JUNCTION     0.46     0.60     5.37     0  03:12        0.60
  WS02003069           JUNCTION     0.30     0.47     5.06     0  03:13        0.47
  WS02003072           JUNCTION     0.37     0.54     4.91     0  03:14        0.54
  WS02003073           JUNCTION     0.21     0.33     4.39     0  03:15        0.33
  WS02003060           JUNCTION     0.27     0.42     5.35     0  03:13        0.42
  WS02003066           JUNCTION     0.18     0.31     5.86     0  03:09        0.31
  WS02003059           JUNCTION     0.53     0.67     5.36     0  03:13        0.67
  WS02003067           JUNCTION     0.46     0.71     6.03     0  03:08        0.71
  WS02004401           JUNCTION     0.54     0.88     6.88     0  03:06        0.88
  WS02004402           JUNCTION     0.58     0.91     6.87     0  03:06        0.90
  WS02004403           JUNCTION     0.60     0.92     6.85     0  03:06        0.92
  WS02004404           JUNCTION     0.67     0.99     6.84     0  03:06        0.99
  WS02004406           JUNCTION     0.69     0.98     6.81     0  03:07        0.98
  WS02004409           JUNCTION     0.35     0.69     6.46     0  03:07        0.69
  WS02004410           JUNCTION     0.38     0.70     6.42     0  03:08        0.70
  WS02004411           JUNCTION     0.40     0.71     6.39     0  03:08        0.71
  WS02004412           JUNCTION     0.42     0.72     6.36     0  03:08        0.72
  WS02004413           JUNCTION     0.57     0.87     6.34     0  03:08        0.87
  WS02004405           JUNCTION     0.67     0.98     6.83     0  03:06        0.98
  WS02006109           JUNCTION     0.62     1.01     7.63     0  03:04        1.01
  WS02006110           JUNCTION     0.63     0.95     7.54     0  03:04        0.95
  WS02006111           JUNCTION     0.17     0.30     7.00     0  03:04        0.30
  WS02006112           JUNCTION     0.70     1.14     7.02     0  03:04        1.11
  WS02006113           JUNCTION     0.25     0.47     7.37     0  03:05        0.47
  WS02006115           JUNCTION     0.43     0.79     6.92     0  03:06        0.78
  WS02006116           JUNCTION     0.51     0.86     6.90     0  03:06        0.86
  WS02006230           JUNCTION     0.54     1.04     7.78     0  03:04        1.04
  WS02006231           JUNCTION     0.31     0.68     7.80     0  03:04        0.68
  WS02006232           JUNCTION     0.42     0.78     7.82     0  03:03        0.78
  WS02006234           JUNCTION     0.32     0.68     7.84     0  03:04        0.68
  WS02006235           JUNCTION     0.34     0.69     7.85     0  03:04        0.69
  WS02006238           JUNCTION     0.37     0.71     7.86     0  03:04        0.71
  WS02006240           JUNCTION     0.29     0.62     7.91     0  05:33        0.62
  WS02006242           JUNCTION     0.35     0.69     7.96     0  05:33        0.69
  WS02006243           JUNCTION     0.25     0.57     7.99     0  05:33        0.57
  WS02006245           JUNCTION     0.26     0.55     8.03     0  05:32        0.54
  WS02006247           JUNCTION     0.28     0.57     8.07     0  05:32        0.57
  WS02006248           JUNCTION     0.24     0.51     8.10     0  05:31        0.51
  WS02006249           JUNCTION     0.28     0.55     8.15     0  05:31        0.55
  WS02006239           JUNCTION     0.33     0.67     7.88     0  05:33        0.67
  WS02006251           JUNCTION     0.27     0.58     8.25     0  05:30        0.57
  WS02006252           JUNCTION     0.23     0.58     8.83     0  05:30        0.58
  WS02006253           JUNCTION     0.30     0.61     8.25     0  05:30        0.59
  WS02006256           JUNCTION     0.62     1.11     8.05     0  04:50        1.11
  WS02004138           JUNCTION     0.08     0.17     7.41     0  05:30        0.17
  WS02004407           JUNCTION     0.16     0.31     6.62     0  03:07        0.31
  WS02006228           JUNCTION     0.60     1.07     7.72     0  03:04        1.06
  WS02006229           JUNCTION     0.57     1.06     7.76     0  03:04        1.06
  WS02006280           JUNCTION     0.07     0.19     8.46     0  03:02        0.19
  WS02006284           JUNCTION     0.37     0.55     8.95     0  03:02        0.55
  WS02006287           JUNCTION     0.10     0.28     9.24     0  03:01        0.28
  WSF200               JUNCTION     0.15     0.30     5.54     0  03:09        0.30
  HS02004901           JUNCTION     0.13     0.28    10.10     0  03:01        0.28
  HS02004881           JUNCTION     0.01     0.04     9.07     0  03:01        0.04
  HS02004876           JUNCTION     0.05     0.12     9.15     0  03:01        0.12
  HS02004870           JUNCTION     0.02     0.06     9.35     0  03:01        0.06
  HS02004862           JUNCTION     0.02     0.07     9.46     0  03:01        0.07
  HS02004856           JUNCTION     0.08     0.13     9.55     0  03:01        0.13
  HS02004852           JUNCTION     0.01     0.05     9.56     0  03:01        0.05
  HS02004848           JUNCTION     0.01     0.05     9.65     0  03:01        0.05
  HS02004842           JUNCTION     0.34     0.38     9.65     0  03:01        0.38
  HS02004837           JUNCTION     0.03     0.07     9.65     0  03:01        0.07
  HS02004830           JUNCTION     0.04     0.08     9.55     0  03:01        0.08
  HS02004824           JUNCTION     0.02     0.06     9.46     0  03:01        0.06
  HS02004817           JUNCTION     0.45     0.60     9.44     0  03:01        0.60
  HS02004807           JUNCTION     0.13     0.27     9.44     0  03:01        0.27
  HS02004802           JUNCTION     0.17     0.30     9.43     0  03:01        0.30
  HS02004799           JUNCTION     0.13     0.33     9.54     0  03:01        0.33
  HS02004792           JUNCTION     0.04     0.14     9.66     0  03:01        0.14
  HS02004788           JUNCTION     0.03     0.10    10.00     0  03:01        0.10
  HS02004785           JUNCTION     0.05     0.17    10.07     0  03:01        0.17
  HS02004777           JUNCTION     0.15     0.30    10.10     0  03:01        0.30
  HS02004770           JUNCTION     0.12     0.27    10.10     0  03:01        0.27
  HS02004480           JUNCTION     0.09     0.26     9.50     0  03:01        0.26
  HS02004479           JUNCTION     0.12     0.30     9.50     0  03:01        0.30
  HS02004478           JUNCTION     0.07     0.18     9.41     0  03:01        0.18
  YS02001745           JUNCTION     0.71     0.90     8.42     0  03:18        0.90
  YS02001748           JUNCTION     1.10     2.27     9.35     0  02:40        1.34
  YS02001751           JUNCTION     1.28     2.19     9.07     0  02:40        1.55
  YS02001754           JUNCTION     1.53     2.13     8.73     0  02:40        1.81
  YS02001762           JUNCTION     1.73     2.03     8.43     0  03:25        2.02
  YS02001765           JUNCTION     1.68     1.98     8.43     0  02:59        1.97
  YS02001767           JUNCTION     1.64     1.93     8.42     0  03:00        1.92
  YS02001770           JUNCTION     1.64     1.92     8.41     0  02:40        1.90
  YS02001774           JUNCTION     1.71     1.98     8.41     0  02:40        1.97
  YS02001779           JUNCTION     1.46     1.68     8.37     0  02:38        1.68
  YS02001882           JUNCTION     0.53     1.61     8.32     0  03:01        1.60
  YS02001884           JUNCTION     0.62     1.71     8.33     0  02:59        1.70
  YS02001759           JUNCTION     1.76     2.07     8.43     0  02:40        2.07
  YS02001887           JUNCTION     0.70     1.78     8.32     0  02:59        1.78
  YS02001890           JUNCTION     0.73     1.81     8.32     0  02:58        1.80
  YS02001898           JUNCTION     0.50     1.55     8.29     0  03:00        1.55
  YS02001901           JUNCTION     0.62     1.67     8.28     0  03:00        1.66
  YS02001904           JUNCTION     0.60     1.64     8.27     0  03:00        1.63
  YS02001907           JUNCTION     0.93     1.96     8.25     0  02:52        1.96
  YS02001910           JUNCTION     0.71     1.78     8.28     0  02:53        1.77
  YS02001915           JUNCTION     0.51     1.59     8.31     0  02:54        1.58
  YS02001918           JUNCTION     0.27     1.26     8.32     0  02:53        1.25
  YS02001619           JUNCTION     1.25     1.58     8.51     0  02:36        1.47
  YS02001629           JUNCTION     1.59     1.85     8.40     0  02:38        1.85
  YS02001641           JUNCTION     1.69     1.96     8.40     0  02:39        1.93
  YS02001644           JUNCTION     1.70     1.92     8.35     0  02:41        1.92
  YS02001652           JUNCTION     1.54     2.10     8.69     0  02:35        1.98
  YS02001655           JUNCTION     1.31     2.18     9.03     0  02:30        1.96
  YS02001920           JUNCTION     0.37     1.33     8.34     0  02:53        1.32
  YS02001923           JUNCTION     0.21     1.09     8.35     0  02:53        1.09
  YS02001926           JUNCTION     0.26     0.90     8.34     0  02:53        0.89
  YS02001929           JUNCTION     0.14     0.68     8.37     0  02:53        0.62
  YS02001658           JUNCTION     1.04     2.30     9.44     0  02:34        1.71
  YS02001661           JUNCTION     0.82     1.95     9.35     0  03:02        1.44
  YS02001664           JUNCTION     0.36     0.57     8.50     0  03:36        0.56
  YS02001622           JUNCTION     1.27     1.55     8.45     0  02:36        1.49
  YS02001633           JUNCTION     1.68     2.00     8.46     0  02:40        1.94
  YS02001649           JUNCTION     1.74     2.05     8.44     0  02:50        2.05
  YS02001757           JUNCTION     1.86     2.17     8.43     0  03:25        2.17
  YS02001895           JUNCTION     0.49     1.56     8.30     0  03:00        1.55
  YS02001625           JUNCTION     1.55     1.78     8.38     0  02:36        1.78
  YS02163301           JUNCTION     1.62     1.93     8.45     0  02:38        1.88
  YS02163601           JUNCTION     1.74     2.05     8.44     0  02:39        1.98
  YS02164001           JUNCTION     1.67     1.97     8.43     0  02:39        1.91
  YS02001647           JUNCTION     1.53     1.80     8.41     0  02:56        1.79
  YSB1154              JUNCTION     0.26     0.45     9.51     0  03:01        0.45
  YSB6556              JUNCTION     0.16     0.34     9.51     0  03:01        0.34
  YSB1174              JUNCTION     0.21     0.40     9.51     0  03:01        0.40
  YSB1171              JUNCTION     0.42     0.60     9.51     0  03:01        0.60
  YS02006553           JUNCTION     0.93     1.96     8.25     0  03:02        1.96
  YS02006561           JUNCTION     0.31     1.08     7.74     0  02:58        1.07
  YS02006556           JUNCTION     0.90     1.92     8.23     0  03:01        1.91
  YS02006558           JUNCTION     0.94     1.96     8.23     0  03:02        1.95
  YS02001783           JUNCTION     0.64     1.47     7.61     0  02:59        1.46
  YS02001784           JUNCTION     0.68     1.41     7.48     0  03:04        1.41
  YS02001786           JUNCTION     0.67     1.26     7.29     0  02:59        1.25
  YS02001788           JUNCTION     0.67     1.13     7.11     0  02:56        1.12
  YS02001790           JUNCTION     0.94     1.29     6.94     0  02:59        1.28
  YS02001791           JUNCTION     1.05     1.28     6.75     0  03:04        1.27
  YS02001793           JUNCTION     1.60     1.80     6.64     0  02:53        1.80
  WS02004139           JUNCTION     0.42     0.61     5.52     0  05:31        0.61
  WSC                  OUTFALL      0.21     0.33     1.00     0  03:15        0.33
  3                    OUTFALL      0.01     0.11     6.11     0  04:50        0.11
  4                    OUTFALL      0.00     0.05     7.05     0  05:31        0.05
  5                    OUTFALL      0.00     0.00     5.00     0  00:00        0.00
  JK-storage           STORAGE      5.55     5.80     6.60     0  02:06        5.80
  CC-storage           STORAGE      1.11     1.41     8.41     0  03:19        1.41
  XR-storage           STORAGE      7.67     7.72     5.72     0  00:51        7.72
  
  
  *******************
  Node Inflow Summary
  *******************
  
  -------------------------------------------------------------------------------------------------
                                  Maximum  Maximum                  Lateral       Total        Flow
                                  Lateral    Total  Time of Max      Inflow      Inflow     Balance
                                   Inflow   Inflow   Occurrence      Volume      Volume       Error
  Node                 Type           LPS      LPS  days hr:min    10^6 ltr    10^6 ltr     Percent
  -------------------------------------------------------------------------------------------------
  WS02001211           JUNCTION      7.35   278.28     0  05:30       0.207        2.42       0.466
  WS02001212           JUNCTION      0.00   268.63     0  05:31           0        2.41       0.220
  WS02001213           JUNCTION      0.00   266.90     0  05:32           0        2.41       0.352
  WS02003069           JUNCTION      0.32   656.36     0  03:13     0.00902        7.19       0.100
  WS02003072           JUNCTION      0.00   655.78     0  03:14           0        7.19       0.165
  WS02003073           JUNCTION      1.82   657.35     0  03:14      0.0514        7.23       0.162
  WS02003060           JUNCTION     16.53   656.70     0  03:12       0.466         7.2       0.095
  WS02003066           JUNCTION      0.00   570.58     0  03:09           0        4.35       0.040
  WS02003059           JUNCTION      0.00   265.23     0  05:32           0        2.41       0.716
  WS02003067           JUNCTION      0.00   570.37     0  03:08           0        4.35       0.108
  WS02004401           JUNCTION      0.00   577.74     0  03:06           0        4.46       0.248
  WS02004402           JUNCTION      0.00   577.25     0  03:06           0        4.45       0.251
  WS02004403           JUNCTION      0.00   576.71     0  03:06           0        4.44       0.242
  WS02004404           JUNCTION      0.16   576.53     0  03:06     0.00457        4.44       0.198
  WS02004406           JUNCTION      0.00   576.72     0  03:06           0        4.41       0.488
  WS02004409           JUNCTION      0.00   576.00     0  03:07           0        4.39       0.088
  WS02004410           JUNCTION      0.00   573.90     0  03:07           0        4.39       0.131
  WS02004411           JUNCTION      0.00   572.26     0  03:07           0        4.38       0.157
  WS02004412           JUNCTION      0.00   571.24     0  03:08           0        4.37       0.202
  WS02004413           JUNCTION      0.00   570.70     0  03:08           0        4.37       0.351
  WS02004405           JUNCTION      0.04   576.62     0  03:06     0.00107        4.43       0.305
  WS02006109           JUNCTION      1.23   576.78     0  03:04      0.0347        4.45       0.162
  WS02006110           JUNCTION      0.00   576.69     0  03:04           0        4.44       0.213
  WS02006111           JUNCTION      0.00   599.27     0  03:05           0        4.43       0.019
  WS02006112           JUNCTION     14.47   590.47     0  03:04      0.0629         4.5       0.340
  WS02006113           JUNCTION      0.00   577.85     0  03:04           0        4.43       0.045
  WS02006115           JUNCTION      0.00   602.68     0  03:04           0        4.48       0.192
  WS02006116           JUNCTION      0.00   581.48     0  03:04           0        4.47       0.161
  WS02006230           JUNCTION     10.28   380.98     0  05:33        0.29        2.55       0.156
  WS02006231           JUNCTION      0.00   374.61     0  05:33           0        2.26      -0.001
  WS02006232           JUNCTION      0.00   375.39     0  05:33           0        2.26       0.099
  WS02006234           JUNCTION      0.00   377.65     0  05:32           0        2.26      -0.127
  WS02006235           JUNCTION      0.00   380.19     0  05:32           0        2.27       0.201
  WS02006238           JUNCTION      0.00   293.87     0  05:33           0        1.94      -0.188
  WS02006240           JUNCTION      0.00   310.69     0  05:31           0        1.93       0.081
  WS02006242           JUNCTION      0.00   323.09     0  05:31           0        1.93       0.119
  WS02006243           JUNCTION      0.00   333.20     0  05:31           0        1.92      -0.294
  WS02006245           JUNCTION      0.00   340.33     0  05:30           0        1.93       0.468
  WS02006247           JUNCTION      0.00   346.59     0  05:30           0        1.93       0.089
  WS02006248           JUNCTION      0.00   351.71     0  05:30           0        1.93      -0.169
  WS02006249           JUNCTION      0.00   382.09     0  05:30           0        1.94       0.284
  WS02006239           JUNCTION      0.00   298.96     0  05:32           0        1.93      -0.414
  WS02006251           JUNCTION      0.08   400.04     0  05:30     0.00217        1.96      -0.034
  WS02006252           JUNCTION      0.00   399.87     0  05:30           0        1.58       0.012
  WS02006253           JUNCTION      1.91    81.00     0  03:01     0.00814       0.381       0.039
  WS02006256           JUNCTION      0.00   299.92     0  05:10           0       0.544       0.159
  WS02004138           JUNCTION      0.00   284.94     0  05:30           0        2.22       0.037
  WS02004407           JUNCTION      0.00   576.32     0  03:07           0        4.39       0.037
  WS02006228           JUNCTION      0.00   575.48     0  03:04           0        4.42       0.136
  WS02006229           JUNCTION      0.00   574.46     0  03:04           0        4.43       0.179
  WS02006280           JUNCTION      0.00   375.55     0  03:02           0        1.89       0.004
  WS02006284           JUNCTION      0.10   375.54     0  03:02      0.0027        1.89       0.064
  WS02006287           JUNCTION      0.00   375.27     0  03:01           0        1.89       0.038
  WSF200               JUNCTION      0.00   570.66     0  03:09           0        4.34       0.026
  HS02004901           JUNCTION     17.47    17.47     0  03:01      0.0757      0.0759       2.380
  HS02004881           JUNCTION      7.55    79.19     0  03:01      0.0331       0.357       0.041
  HS02004876           JUNCTION     14.15    72.10     0  03:01      0.0636       0.324       0.171
  HS02004870           JUNCTION     14.17    58.27     0  03:01      0.0626       0.261       0.043
  HS02004862           JUNCTION     13.95    44.46     0  03:01      0.0685       0.198       0.089
  HS02004856           JUNCTION     10.64    30.79     0  03:01      0.0471       0.131       1.114
  HS02004852           JUNCTION      0.00    20.44     0  03:01           0       0.084       0.069
  HS02004848           JUNCTION     32.07    32.07     0  03:01       0.151       0.151       0.032
  HS02004842           JUNCTION      0.00    11.42     0  03:01           0      0.0801      19.391
  HS02004837           JUNCTION     30.75    41.91     0  03:01       0.288       0.355       0.228
  HS02004830           JUNCTION      0.15    41.84     0  03:01     0.00423       0.346       0.358
  HS02004824           JUNCTION     40.25    81.79     0  03:01       0.197       0.542       0.100
  HS02004817           JUNCTION      0.60    82.18     0  03:01      0.0169       0.558       3.079
  HS02004807           JUNCTION     26.15   107.24     0  03:01       0.115       0.657       0.656
  HS02004802           JUNCTION      0.00   106.49     0  03:01           0       0.653       0.616
  HS02004799           JUNCTION     21.02   227.51     0  03:01      0.0932        1.06       0.236
  HS02004792           JUNCTION     88.55   207.32     0  03:01       0.396       0.966       0.043
  HS02004788           JUNCTION     30.78   119.37     0  03:01       0.177       0.571       0.069
  HS02004785           JUNCTION      0.15    89.79     0  03:01     0.00423       0.396       0.125
  HS02004777           JUNCTION      0.03    90.24     0  03:01    0.000846       0.397       1.326
  HS02004770           JUNCTION     73.89    90.93     0  03:01       0.324       0.398       0.787
  HS02004480           JUNCTION      0.00   269.27     0  03:01           0        1.25       0.099
  HS02004479           JUNCTION      0.00    42.82     0  03:02           0       0.204       0.360
  HS02004478           JUNCTION      0.00   375.17     0  03:01           0        1.89       0.018
  YS02001745           JUNCTION    297.18   392.61     0  02:38        2.34        2.35       0.485
  YS02001748           JUNCTION      0.04   584.26     0  02:38     0.00127        2.34       0.973
  YS02001751           JUNCTION      0.01   307.11     0  03:01     0.00031         2.3       1.024
  YS02001754           JUNCTION      0.26   306.88     0  03:01     0.00733        2.29       1.097
  YS02001762           JUNCTION      0.00   309.32     0  02:49           0        1.67       1.280
  YS02001765           JUNCTION      0.00   308.88     0  02:50           0        1.68       1.473
  YS02001767           JUNCTION      0.54   309.41     0  02:50      0.0151         1.7       2.134
  YS02001770           JUNCTION    373.02   456.72     0  03:22        2.63        2.98       1.065
  YS02001774           JUNCTION      0.00   457.46     0  03:23           0        1.62       1.561
  YS02001779           JUNCTION      0.01   457.85     0  03:22    0.000141        1.59       0.971
  YS02001882           JUNCTION      0.00    13.70     0  02:45           0      0.0136      19.903
  YS02001884           JUNCTION      0.00    21.90     0  02:44           0       0.049      14.337
  YS02001759           JUNCTION    359.84   608.50     0  02:51        2.43        3.72       0.620
  YS02001887           JUNCTION    453.35   453.43     0  03:01         2.8        2.83       0.300
  YS02001890           JUNCTION      0.00   453.55     0  03:01           0        2.79       0.331
  YS02001898           JUNCTION      0.00   453.66     0  03:01           0        2.77       0.119
  YS02001901           JUNCTION      0.00   454.09     0  03:01           0        2.77       0.250
  YS02001904           JUNCTION      0.00   453.88     0  03:01           0        2.77       0.231
  YS02001907           JUNCTION      0.00   863.31     0  02:58           0        6.12       0.391
  YS02001910           JUNCTION      0.00   431.62     0  02:54           0        3.37       0.349
  YS02001915           JUNCTION    263.65   431.48     0  02:54        1.96        3.39       0.180
  YS02001918           JUNCTION      0.00   197.47     0  02:54           0        1.43       0.128
  YS02001619           JUNCTION    257.27   257.27     0  03:01        1.95        1.95       0.622
  YS02001629           JUNCTION      0.00   201.18     0  02:30           0        1.62       1.807
  YS02001641           JUNCTION      0.00   419.07     0  02:47           0        3.83       0.549
  YS02001644           JUNCTION    282.70  1171.41     0  03:22        2.25        9.54       0.281
  YS02001652           JUNCTION      0.00   369.63     0  03:01           0        2.04       1.162
  YS02001655           JUNCTION      0.15   369.68     0  03:01     0.00434        2.06       1.181
  YS02001920           JUNCTION      2.87   197.56     0  02:54      0.0809        1.42       0.207
  YS02001923           JUNCTION      0.04   202.34     0  02:54     0.00106        1.34       0.050
  YS02001926           JUNCTION      0.05   171.93     0  02:54     0.00147        1.34       0.246
  YS02001929           JUNCTION    129.40   129.40     0  03:01        1.34        1.34       0.041
  YS02001658           JUNCTION      0.00   635.84     0  02:34           0         2.1       1.103
  YS02001661           JUNCTION      0.00   658.42     0  02:49           0        2.32      -0.105
  YS02001664           JUNCTION    327.80   360.25     0  02:48        2.09        2.31       0.284
  YS02001622           JUNCTION      0.00   257.60     0  03:01           0        1.94       1.668
  YS02001633           JUNCTION    287.40   418.13     0  02:47        2.32        3.89       0.829
  YS02001649           JUNCTION      0.00   882.04     0  02:46           0        5.73       0.657
  YS02001757           JUNCTION      0.00  1677.39     0  02:48           0        8.03       1.157
  YS02001895           JUNCTION      0.00   453.56     0  03:01           0        2.78       0.175
  YS02001625           JUNCTION      0.00   257.34     0  03:01           0         1.9       2.072
  YS02163301           JUNCTION      0.00   199.65     0  02:47           0         1.6       1.532
  YS02163601           JUNCTION      0.11   418.68     0  02:47      0.0031        3.85       0.782
  YS02164001           JUNCTION      0.00   418.83     0  02:47           0        3.83       0.527
  YS02001647           JUNCTION      0.00   633.32     0  02:47           0        4.96       0.571
  YSB1154              JUNCTION     25.19    25.19     0  03:01       0.113       0.114       1.285
  YSB6556              JUNCTION      0.00    24.91     0  03:01           0       0.115       1.100
  YSB1174              JUNCTION     19.06    19.06     0  03:01      0.0821      0.0827       1.580
  YSB1171              JUNCTION      0.00    43.19     0  03:01           0       0.203       3.219
  YS02006553           JUNCTION      0.00   667.49     0  03:17           0         5.9       0.264
  YS02006561           JUNCTION      0.00   964.25     0  03:00           0        8.42       0.003
  YS02006556           JUNCTION      0.00   667.08     0  03:17           0         5.9       0.189
  YS02006558           JUNCTION    392.87   964.60     0  03:00        2.57        8.44       0.067
  YS02001783           JUNCTION      0.00   964.41     0  03:00           0        8.42       0.086
  YS02001784           JUNCTION      1.06   965.34     0  03:00      0.0299        8.44       0.127
  YS02001786           JUNCTION      0.06   965.23     0  03:00     0.00159        8.43       0.161
  YS02001788           JUNCTION      0.07   965.34     0  03:00       0.002        8.42       0.163
  YS02001790           JUNCTION      0.15   965.57     0  03:00     0.00437        8.41       0.203
  YS02001791           JUNCTION      0.00   965.58     0  03:01           0        8.39       0.175
  YS02001793           JUNCTION      0.00   965.69     0  03:00           0        8.38       0.191
  WS02004139           JUNCTION      0.32   283.85     0  05:30     0.00905        2.23       0.677
  WSC                  OUTFALL       0.00   656.92     0  03:15           0        7.21       0.000
  3                    OUTFALL       0.00   189.14     0  04:50           0       0.215       0.000
  4                    OUTFALL       0.00    28.76     0  05:31           0     0.00431       0.000
  5                    OUTFALL       0.00     0.00     0  00:00           0           0       0.000 ltr
  JK-storage           STORAGE       0.00   965.89     0  03:01           0        8.51       0.239
  CC-storage           STORAGE       0.00  1677.56     0  02:48           0        5.67       1.160
  XR-storage           STORAGE     690.11   690.11     0  03:01        9.61        10.2       0.004
  
  
  **********************
  Node Surcharge Summary
  **********************
  
  Surcharging occurs when water rises above the top of the highest conduit.
  ---------------------------------------------------------------------
                                               Max. Height   Min. Depth
                                   Hours       Above Crown    Below Rim
  Node                 Type      Surcharged         Meters       Meters
  ---------------------------------------------------------------------
  WS02006109           JUNCTION        0.57          0.193        1.627
  WS02006110           JUNCTION        0.13          0.042        1.808
  WS02006112           JUNCTION        0.44          0.140        1.540
  WS02006232           JUNCTION        0.17          0.082        1.398
  WS02006252           JUNCTION        0.13          0.185        0.915
  WS02006228           JUNCTION        0.57          0.238        1.962
  YS02001748           JUNCTION        5.11          1.190        0.000
  YS02001751           JUNCTION        5.29          1.190        0.010
  YS02001754           JUNCTION        5.48          1.076        0.074
  YS02001762           JUNCTION        5.64          1.033        0.117
  YS02001765           JUNCTION        5.62          0.979        0.121
  YS02001767           JUNCTION        5.59          0.935        0.095
  YS02001770           JUNCTION        5.58          0.886        0.034
  YS02001774           JUNCTION        5.63          0.985        0.065
  YS02001779           JUNCTION        5.46          0.680        0.000
  YS02001882           JUNCTION        0.80          0.609        0.221
  YS02001884           JUNCTION        0.84          0.649        0.221
  YS02001759           JUNCTION        5.66          1.069        0.141
  YS02001887           JUNCTION        0.93          0.734        0.216
  YS02001890           JUNCTION        0.97          0.760        0.000
  YS02001898           JUNCTION        0.76          0.525        0.215
  YS02001901           JUNCTION        0.90          0.671        0.199
  YS02001904           JUNCTION        0.87          0.635        0.215
  YS02001907           JUNCTION        1.52          0.950        0.000
  YS02001910           JUNCTION        1.01          0.776        0.324
  YS02001915           JUNCTION        0.79          0.588        0.412
  YS02001918           JUNCTION        0.53          0.258        0.552
  YS02001619           JUNCTION        5.27          0.585        0.025
  YS02001629           JUNCTION        5.28          0.470        0.000
  YS02001641           JUNCTION        5.62          0.962        0.138
  YS02001644           JUNCTION        5.62          0.920        0.000
  YS02001652           JUNCTION        5.52          1.066        0.064
  YS02001655           JUNCTION        5.30          1.177        0.023
  YS02001920           JUNCTION        0.57          0.334        0.806
  YS02001658           JUNCTION        5.13          1.300        0.000
  YS02001661           JUNCTION        0.12          0.879        0.511
  YS02001622           JUNCTION        5.31          0.550        0.070
  YS02001633           JUNCTION        5.61          0.983        0.077
  YS02001649           JUNCTION        5.64          1.050        0.000
  YS02001757           JUNCTION        5.74          1.173        0.037
  YS02001895           JUNCTION        0.77          0.556        0.194
  YS02001625           JUNCTION        5.55          0.780        0.000
  YS02163301           JUNCTION        5.58          0.930        0.100
  YS02163601           JUNCTION        5.64          1.046        0.034
  YS02164001           JUNCTION        5.61          0.974        0.126
  YS02001647           JUNCTION        5.53          0.803        0.097
  YS02006553           JUNCTION        1.60          0.964        0.226
  YS02006561           JUNCTION        0.67          0.280        0.870
  YS02006556           JUNCTION        1.24          0.880        0.470
  YS02006558           JUNCTION        1.20          0.859        0.541
  YS02001783           JUNCTION        1.47          0.669        0.931
  YS02001784           JUNCTION        1.54          0.613        0.877
  YS02001786           JUNCTION        1.47          0.459        0.971
  YS02001788           JUNCTION        1.45          0.332        1.148
  YS02001790           JUNCTION        5.75          0.494        0.663
  YS02001791           JUNCTION        5.77          0.478        1.442
  YS02001793           JUNCTION        5.81          0.805        1.795
  
  
  *********************
  Node Flooding Summary
  *********************
  
  Flooding refers to all water that overflows a node, whether it ponds or not.
  --------------------------------------------------------------------------
                                                             Total   Maximum
                                 Maximum   Time of Max       Flood    Ponded
                        Hours       Rate    Occurrence      Volume     Depth
  Node                 Flooded       LPS   days hr:min    10^6 ltr    Meters
  --------------------------------------------------------------------------
  YS02001748              0.01    168.19      0  02:40       0.000     0.000
  YS02001779              2.65    457.74      0  03:22       1.574     0.000
  YS02001890              0.01      0.07      0  02:58       0.000     0.000
  YS02001907              0.38    278.96      0  02:58       0.212     0.000
  YS02001629              0.01     29.57      0  02:38       0.000     0.000
  YS02001644              4.81   1171.38      0  03:22       8.030     0.000
  YS02001658              0.01    237.62      0  02:35       0.000     0.000
  YS02001649              0.03     35.97      0  02:55       0.002     0.000
  YS02001625              0.88    169.90      0  03:01       0.249     0.000
  JK-storage              5.55    965.81      0  03:01       7.659     0.000
  XR-storage              6.98    680.64      0  03:01       7.063     0.000
  
  
  **********************
  Storage Volume Summary
  **********************
  
  --------------------------------------------------------------------------------------------------
                         Average     Avg  Evap Exfil       Maximum     Max    Time of Max    Maximum
                          Volume    Pcnt  Pcnt  Pcnt        Volume    Pcnt     Occurrence    Outflow
  Storage Unit           1000 m3    Full  Loss  Loss       1000 m3    Full    days hr:min        LPS
  --------------------------------------------------------------------------------------------------
  JK-storage               0.279      96     0     0         0.291     100       0  02:06     299.92
  CC-storage               3.084      20     0     0         3.927      25       0  03:19     399.87
  XR-storage               0.920      99     0     0         0.926     100       0  00:51     284.94
  
  
  ***********************
  Outfall Loading Summary
  ***********************
  
  -----------------------------------------------------------
                         Flow       Avg       Max       Total
                         Freq      Flow      Flow      Volume
  Outfall Node           Pcnt       LPS       LPS    10^6 ltr
  -----------------------------------------------------------
  WSC                   99.99    293.93    656.92       7.214
  3                     16.74     94.76    189.14       0.215
  4                      2.75     13.18     28.76       0.004
  5                      0.00      0.00      0.00       0.000
  -----------------------------------------------------------
  System                29.87    401.88    656.92       7.434
  
  
  ********************
  Link Flow Summary
  ********************
  
  -----------------------------------------------------------------------------
                                 Maximum  Time of Max   Maximum    Max/    Max/
                                  |Flow|   Occurrence   |Veloc|    Full    Full
  Link                 Type          LPS  days hr:min     m/sec    Flow   Depth
  -----------------------------------------------------------------------------
  WS02003066WSF200     CONDUIT    570.66     0  03:09      2.87    0.10    0.23
  WS02006287WS02006284 CONDUIT    375.44     0  03:02      1.98    0.17    0.29
  WS02006284WS02006280 CONDUIT    375.55     0  03:02      2.22    0.16    0.27
  WS02006280WS02006229 CONDUIT    375.58     0  03:02      3.58    0.08    0.19
  WS02006229WS02006228 CONDUIT    575.48     0  03:04      1.14    1.91    1.00
  WS02006256WS02006235 CONDUIT    138.75     0  05:26      1.96    1.47    1.00
  WS02006253WS02006251 CONDUIT     85.52     0  03:01      0.56    0.26    0.84
  WS02006252WS02006251 CONDUIT    399.97     0  05:30      3.18    1.47    1.00
  WS02006251WS02006249 CONDUIT    382.09     0  05:30      1.15    1.10    0.80
  WS02006249WS02006248 CONDUIT    351.71     0  05:30      1.17    1.93    0.75
  WS02006248WS02006247 CONDUIT    346.59     0  05:30      1.14    0.75    0.76
  WS02006247WS02006245 CONDUIT    340.33     0  05:30      1.10    2.70    0.79
  WS02006245WS02006243 CONDUIT    333.20     0  05:31      1.12    0.99    0.79
  WS02006243WS02006242 CONDUIT    323.09     0  05:31      0.97    0.69    0.88
  WS02006242WS02006240 CONDUIT    310.69     0  05:31      0.87    1.23    0.93
  WS02006240WS02006239 CONDUIT    298.96     0  05:32      0.96    0.94    0.90
  WS02006239WS02006238 CONDUIT    293.87     0  05:33      0.81    0.94    0.97
  WS02006238WS02006235 CONDUIT    293.10     0  05:33      0.77    0.65    0.99
  WS02006235WS02006234 CONDUIT    377.65     0  05:32      1.04    3.98    0.96
  WS02006234WS02006232 CONDUIT    375.39     0  05:33      0.99    0.76    0.99
  WS02006232WS02006231 CONDUIT    374.61     0  05:33      1.04    0.78    0.98
  WS02006231WS02006230 CONDUIT    370.70     0  05:33      1.36    5.62    0.96
  WS02006230WS02006229 CONDUIT    377.46     0  05:34      0.98    8.40    1.00
  WS02006228WS02006109 CONDUIT    575.55     0  03:04      1.15    2.51    1.00
  WS02006116WS02004401 CONDUIT    577.74     0  03:06      0.80    0.80    0.87
  WS02006115WS02006116 CONDUIT    581.48     0  03:04      0.88    0.75    0.79
  WS02006113WS02006111 CONDUIT    599.27     0  03:05      2.52    0.72    0.48
  WS02006112WS02006115 CONDUIT    602.68     0  03:04      0.82    0.36    0.89
  WS02006111WS02006112 CONDUIT    581.39     0  03:04      1.60    0.28    0.68
  WS02006110WS02006113 CONDUIT    577.85     0  03:04      1.35    0.53    0.80
  WS02006109WS02006110 CONDUIT    576.69     0  03:04      1.15    1.11    1.00
  WS02004411WS02004412 CONDUIT    571.24     0  03:08      0.95    0.81    0.71
  WS02004401WS02004402 CONDUIT    577.25     0  03:06      0.78    0.69    0.89
  WS02004413WS02003067 CONDUIT    570.37     0  03:08      1.15    0.24    0.60
  WS02004412WS02004413 CONDUIT    570.70     0  03:08      0.85    0.38    0.79
  WS02004410WS02004411 CONDUIT    572.26     0  03:07      0.97    0.78    0.71
  WS02004409WS02004410 CONDUIT    573.90     0  03:07      0.99    0.74    0.70
  WS02004407WS02004409 CONDUIT    576.00     0  03:07      1.48    0.20    0.50
  WS02004406WS02004407 CONDUIT    576.32     0  03:07      1.08    0.26    0.64
  WS02004405WS02004406 CONDUIT    576.72     0  03:06      0.74    1.14    0.98
  WS02004404WS02004405 CONDUIT    576.58     0  03:06      0.74    5.65    0.98
  WS02004403WS02004404 CONDUIT    576.37     0  03:06      0.75    0.42    0.95
  WS02004402WS02004403 CONDUIT    576.71     0  03:06      0.77    0.83    0.91
  WS02004139WS02001211 CONDUIT    270.93     0  05:30      0.69    0.34    0.49
  WS02004138WS02004139 CONDUIT    283.53     0  05:30      2.95    0.06    0.36
  WS02003067WS02003066 CONDUIT    570.58     0  03:09      1.25    0.18    0.42
  WS02001213WS02003059 CONDUIT    265.23     0  05:32      0.65    0.44    0.63
  WS02001212WS02001213 CONDUIT    266.90     0  05:32      1.15    0.41    0.34
  WS02001211WS02001212 CONDUIT    268.63     0  05:31      0.64    0.21    0.53
  WS02003072WS02003073 CONDUIT    655.53     0  03:14      1.52    1.42    0.41
  WS02003069WS02003072 CONDUIT    655.78     0  03:14      1.44    0.32    0.42
  WS02003060WS02003069 CONDUIT    656.04     0  03:13      1.71    0.26    0.37
  WS02003059WS02003060 CONDUIT    263.22     0  05:33      0.68    0.17    0.55
  HS02004901HS02004770 CONDUIT     17.70     0  03:01      0.07    0.07    0.39
  HS02004876HS02004881 CONDUIT     71.90     0  03:01      0.92    0.76    0.11
  HS02004870HS02004876 CONDUIT     58.03     0  03:01      0.63    0.04    0.13
  HS02004842HS02004848 CONDUIT     11.42     0  03:01      0.05    0.01    0.30
  HS02004837HS02004842 CONDUIT     11.94     0  03:02      0.42    0.01    0.32
  HS02004830HS02004837 CONDUIT     41.69     0  03:01      0.56    0.04    0.11
  HS02004824HS02004830 CONDUIT     41.67     0  03:01      0.58    0.05    0.10
  HS02004817HS02004824 CONDUIT     81.58     0  03:01      0.25    0.04    0.47
  HS02004770HS02004777 CONDUIT     90.21     0  03:01      0.32    0.16    0.41
  HS02004799HS02004480 CONDUIT    226.98     0  03:01      0.78    0.29    0.42
  HS02004792HS02004799 CONDUIT    206.60     0  03:01      0.88    0.13    0.33
  HS02004788HS02004792 CONDUIT    118.94     0  03:01      1.01    0.08    0.17
  HS02004785HS02004788 CONDUIT     89.52     0  03:02      0.66    0.67    0.19
  HS02004777HS02004785 CONDUIT     89.64     0  03:01      0.38    0.11    0.33
  HS02004480HS02004478 CONDUIT    269.12     0  03:01      1.20    1.13    0.32
  HS02004479HS02004480 CONDUIT     44.17     0  03:02      0.23    0.04    0.40
  HS02004862HS02004870 CONDUIT     44.23     0  03:01      0.64    0.05    0.10
  HS02004848HS02004852 CONDUIT     20.44     0  03:01      0.44    0.02    0.07
  HS02004856HS02004862 CONDUIT     30.57     0  03:01      0.47    0.03    0.09
  HS02004852HS02004856 CONDUIT     20.26     0  03:01      0.24    0.02    0.12
  HS02004802HS02004478 CONDUIT    106.59     0  03:02      0.45    0.09    0.35
  HS02004478WS02006287 CONDUIT    375.27     0  03:01      1.68    0.11    0.25
  HS02004817HS02004807 CONDUIT     82.18     0  03:01      0.19    0.05    0.62
  HS02004807HS02004802 CONDUIT    106.49     0  03:01      0.38    0.20    0.40
  YS02001759YS02001757 CONDUIT    608.32     0  02:51      0.77    0.43    1.00
  YS02001762YS02001759 CONDUIT    309.76     0  02:49      0.39    0.36    1.00
  YS02001765YS02001762 CONDUIT    309.32     0  02:49      0.39    0.29    1.00
  YS02001770YS02001767 CONDUIT    308.88     0  02:50      0.39    1.22    1.00
  YS02001774YS02001770 CONDUIT    457.46     0  03:23      0.58    0.29    1.00
  YS02001779YS02001774 CONDUIT    457.84     0  03:22      0.58    0.23    1.00
  YS02001649YS02001757 CONDUIT    883.12     0  02:46      1.12    0.54    1.00
  YS02001767YS02001765 CONDUIT    308.88     0  02:50      0.39    0.39    1.00
  YS02006561YS02001783 CONDUIT    964.41     0  03:00      1.92    0.50    1.00
  YS02001783YS02001784 CONDUIT    964.28     0  03:00      1.92    1.33    1.00
  YS02001784YS02001785 CONDUIT    965.18     0  03:00      1.92    2.25    1.00
  YS02001788YS02001790 CONDUIT    965.41     0  03:00      1.92    0.71    1.00
  YS02001790YS02001791 CONDUIT    965.58     0  03:01      2.00    1.05    1.00
  YS02001791YS02001793 CONDUIT    965.69     0  03:00      3.54    0.41    1.00
  YS02001910YS02001907 CONDUIT    431.50     0  02:54      0.55    0.24    1.00
  YS02001786YS02001788 CONDUIT    965.27     0  03:00      1.92    1.86    1.00
  YS02001915YS02001910 CONDUIT    431.62     0  02:54      0.55    0.21    1.00
  YS02001918YS02001915 CONDUIT    197.61     0  02:54      0.44    0.11    1.00
  YS02001923YS02001920 CONDUIT    194.69     0  02:54      0.68    0.09    1.00
  YS02001926YS02001923 CONDUIT    202.30     0  02:54      0.79    0.29    0.89
  YS02001929YS02001926 CONDUIT    171.87     0  02:54      0.84    0.08    0.79
  YS02001920YS02001918 CONDUIT    197.47     0  02:54      0.67    0.19    1.00
  YS02001629YS02163301 CONDUIT    199.65     0  02:47      0.25    0.25    1.00
  YS02001619YS02001622 CONDUIT    257.60     0  03:01      0.61    0.38    1.00
  YS02001622YS02001625 CONDUIT    257.34     0  03:01      0.33    0.14    1.00
  YS02001625YS02001629 CONDUIT    201.18     0  02:30      0.26    0.10    1.00
  YS02163301YS02001633 CONDUIT    199.61     0  02:47      0.25    0.19    1.00
  YS02163601YS02164001 CONDUIT    418.83     0  02:47      0.53    0.37    1.00
  YS02164001YS02001641 CONDUIT    419.07     0  02:47      0.53    0.57    1.00
  YS02001641YS02001644 CONDUIT    418.30     0  02:47      0.53    1.35    1.00
  YS02001647YS02001649 CONDUIT    633.08     0  02:47      0.81    0.33    1.00
  YS02006553YS02006556 CONDUIT    667.08     0  03:17      0.85    0.57    1.00
  YS02006556YS02006558 CONDUIT    667.92     0  03:17      0.85    0.53    1.00
  YSB6556YSB1171       CONDUIT     24.81     0  03:03      0.09    0.03    0.67
  YS02001907YS02006553 CONDUIT    667.49     0  03:17      0.74    0.79    1.00
  YS02006558YS02006561 CONDUIT    964.25     0  03:00      3.41    2.13    1.00
  YS02001633YS02163601 CONDUIT    418.57     0  02:47      0.53    0.44    1.00
  YS02001644YS02001647 CONDUIT    633.32     0  02:47      0.81    0.37    1.00
  YS02001745YS02001748 CONDUIT    584.22     0  02:38      1.48    0.22    0.95
  YS02001748YS02001751 CONDUIT    307.10     0  03:01      1.05    0.16    1.00
  YS02001751YS02001754 CONDUIT    306.62     0  03:01      0.88    0.15    1.00
  YS02001754YS02001757 CONDUIT    307.10     0  03:01      0.39    0.12    1.00
  YS02001882YS02001884 CONDUIT     13.70     0  02:45      0.09    0.02    1.00
  YS02001884YS02001887 CONDUIT     21.90     0  02:44      0.05    0.03    1.00
  YS02001890YS02001895 CONDUIT    453.56     0  03:01      0.58    0.21    1.00
  YS02001895YS02001898 CONDUIT    453.66     0  03:01      0.58    0.79    1.00
  YS02001898YS02001901 CONDUIT    454.09     0  03:01      0.58    0.29    1.00
  YS02001901YS02001904 CONDUIT    453.88     0  03:01      0.58    0.70    1.00
  YS02001904YS02001907 CONDUIT    454.05     0  03:01      0.58    0.16    1.00
  YS02001887YS02001890 CONDUIT    453.55     0  03:01      0.58    0.78    1.00
  YS02001652YS02001649 CONDUIT    369.81     0  03:01      0.50    0.18    1.00
  YS02001655YS02001652 CONDUIT    369.63     0  03:01      0.93    0.18    1.00
  YS02001658YS02001655 CONDUIT    369.52     0  03:01      1.21    0.16    1.00
  YS02001661YS02001658 CONDUIT    635.84     0  02:34      1.56    0.25    1.00
  YS02001664YS02001661 CONDUIT    658.42     0  02:49      1.46    0.21    0.74
  YSB1154YSB6556       CONDUIT     24.91     0  03:01      0.18    0.04    0.56
  YSB1174YSB1171       CONDUIT     18.78     0  03:01      0.07    0.03    0.68
  YSB1171HS02004479    CONDUIT     42.82     0  03:02      0.54    0.03    0.53
  HS02004881HS02006253 CONDUIT     79.15     0  03:01      2.13    0.02    0.19
  YS02001793JiankangQianchi CONDUIT    965.89     0  03:01      1.23    0.08    1.00
  YS02001757CaochengTiaoxuchi CONDUIT   1677.56     0  02:48      2.18    0.74    1.00
  WSF200WS02003060     CONDUIT    570.52     0  03:09      2.04    0.13    0.30
  1                    CONDUIT    656.92     0  03:15      2.96    0.23    0.33
  2                    CONDUIT     28.76     0  05:31      3.38    0.07    0.18
  3                    CONDUIT    189.14     0  04:50      7.73    0.30    0.38
  4                    CONDUIT      0.00     0  00:00      0.00    0.00    0.00
  CC-Pump-1            PUMP       199.94     0  05:30              1.00
  CC-Pump-2            PUMP       200.00     0  06:10              1.00
  JK-Pump-1            PUMP       299.88     0  04:50              1.00
  JK-Pump-2            PUMP       299.92     0  05:10              1.00
  XR-Pump-1            PUMP        95.00     0  00:00              1.00
  XR-Pump-2            PUMP        94.85     0  01:50              1.00
  XR-Pump-3            PUMP        94.97     0  05:30              1.00
  XR-Pump-4            PUMP        95.00     0  00:00              1.00
  
  
  ***************************
  Flow Classification Summary
  ***************************
  
  -------------------------------------------------------------------------------------
                      Adjusted    ---------- Fraction of Time in Flow Class ---------- 
                       /Actual         Up    Down  Sub   Sup   Up    Down  Norm  Inlet 
  Conduit               Length    Dry  Dry   Dry   Crit  Crit  Crit  Crit  Ltd   Ctrl  
  -------------------------------------------------------------------------------------
  WS02003066WSF200        1.00   0.10  0.00  0.00  0.00  0.90  0.00  0.00  0.68  0.00
  WS02006287WS02006284    1.00   0.03  0.02  0.00  0.61  0.34  0.00  0.00  0.65  0.00
  WS02006284WS02006280    1.00   0.04  0.00  0.00  0.00  0.00  0.00  0.96  0.00  0.00
  WS02006280WS02006229    1.00   0.04  0.00  0.00  0.00  0.00  0.00  0.96  0.00  0.00
  WS02006229WS02006228    1.00   0.00  0.00  0.00  1.00  0.00  0.00  0.00  0.00  0.00
  WS02006256WS02006235    1.00   0.06  0.00  0.00  0.94  0.00  0.00  0.00  0.01  0.00
  WS02006253WS02006251    1.00   0.01  0.02  0.00  0.96  0.00  0.01  0.00  0.00  0.00
  WS02006252WS02006251    1.00   0.08  0.03  0.00  0.00  0.00  0.89  0.00  0.00  0.00
  WS02006251WS02006249    1.00   0.00  0.00  0.00  1.00  0.00  0.00  0.00  0.49  0.00
  WS02006249WS02006248    1.00   0.00  0.01  0.00  0.74  0.00  0.25  0.00  0.00  0.00
  WS02006248WS02006247    1.00   0.01  0.00  0.00  0.98  0.00  0.00  0.02  0.40  0.00
  WS02006247WS02006245    1.00   0.01  0.00  0.00  0.94  0.00  0.00  0.05  0.00  0.00
  WS02006245WS02006243    1.00   0.01  0.00  0.00  0.88  0.00  0.00  0.11  0.01  0.00
  WS02006243WS02006242    1.00   0.01  0.00  0.00  0.95  0.00  0.00  0.04  0.39  0.00
  WS02006242WS02006240    1.00   0.01  0.04  0.00  0.93  0.00  0.02  0.00  0.00  0.00
  WS02006240WS02006239    1.00   0.05  0.00  0.00  0.81  0.00  0.00  0.14  0.01  0.00
  WS02006239WS02006238    1.00   0.05  0.00  0.00  0.94  0.00  0.00  0.01  0.03  0.00
  WS02006238WS02006235    1.00   0.05  0.01  0.00  0.94  0.00  0.00  0.00  0.00  0.00
  WS02006235WS02006234    1.00   0.06  0.00  0.00  0.87  0.00  0.06  0.00  0.00  0.00
  WS02006234WS02006232    1.00   0.06  0.00  0.00  0.94  0.00  0.00  0.00  0.01  0.00
  WS02006232WS02006231    1.00   0.07  0.01  0.00  0.93  0.00  0.00  0.00  0.01  0.00
  WS02006231WS02006230    1.00   0.07  0.00  0.00  0.27  0.00  0.66  0.00  0.00  0.00
  WS02006230WS02006229    1.00   0.00  0.00  0.00  0.99  0.00  0.00  0.01  0.01  0.00
  WS02006228WS02006109    1.00   0.00  0.00  0.00  1.00  0.00  0.00  0.00  0.01  0.00
  WS02006116WS02004401    1.00   0.03  0.00  0.00  0.97  0.00  0.00  0.00  0.01  0.00
  WS02006115WS02006116    1.00   0.03  0.00  0.00  0.93  0.00  0.00  0.03  0.00  0.00
  WS02006113WS02006111    1.00   0.02  0.00  0.00  0.01  0.97  0.00  0.00  0.18  0.00
  WS02006112WS02006115    1.00   0.02  0.01  0.00  0.97  0.00  0.00  0.00  0.00  0.00
  WS02006111WS02006112    1.00   0.02  0.00  0.00  0.98  0.00  0.00  0.00  0.92  0.00
  WS02006110WS02006113    1.00   0.00  0.01  0.00  0.98  0.00  0.00  0.00  0.00  0.00
  WS02006109WS02006110    1.00   0.00  0.00  0.00  0.99  0.00  0.00  0.00  0.00  0.00
  WS02004411WS02004412    1.00   0.07  0.00  0.00  0.93  0.00  0.00  0.00  0.00  0.00
  WS02004401WS02004402    1.00   0.03  0.00  0.00  0.97  0.00  0.00  0.00  0.04  0.00
  WS02004413WS02003067    1.00   0.08  0.01  0.00  0.00  0.00  0.91  0.00  0.00  0.00
  WS02004412WS02004413    1.00   0.08  0.00  0.00  0.92  0.00  0.00  0.00  0.00  0.00
  WS02004410WS02004411    1.00   0.07  0.00  0.00  0.93  0.00  0.00  0.00  0.00  0.00
  WS02004409WS02004410    1.00   0.07  0.00  0.00  0.93  0.00  0.00  0.00  0.00  0.00
  WS02004407WS02004409    1.00   0.07  0.00  0.00  0.92  0.01  0.00  0.00  0.77  0.00
  WS02004406WS02004407    1.00   0.00  0.07  0.00  0.93  0.00  0.00  0.00  0.00  0.00
  WS02004405WS02004406    1.00   0.00  0.00  0.00  1.00  0.00  0.00  0.00  0.04  0.00
  WS02004404WS02004405    1.00   0.00  0.00  0.00  1.00  0.00  0.00  0.00  0.00  0.00
  WS02004403WS02004404    1.00   0.00  0.03  0.00  0.97  0.00  0.00  0.00  0.04  0.00
  WS02004402WS02004403    1.00   0.03  0.00  0.00  0.97  0.00  0.00  0.00  0.00  0.00
  WS02004139WS02001211    1.00   0.00  0.00  0.00  1.00  0.00  0.00  0.00  0.00  0.00
  WS02004138WS02004139    1.00   0.00  0.02  0.00  0.98  0.00  0.00  0.00  1.00  0.00
  WS02003067WS02003066    1.00   0.09  0.01  0.00  0.90  0.00  0.00  0.00  0.00  0.00
  WS02001213WS02003059    1.00   0.00  0.00  0.00  1.00  0.00  0.00  0.00  0.00  0.00
  WS02001212WS02001213    1.00   0.00  0.00  0.00  0.38  0.00  0.62  0.00  0.00  0.00
  WS02001211WS02001212    1.00   0.00  0.00  0.00  1.00  0.00  0.00  0.00  0.00  0.00
  WS02003072WS02003073    1.00   0.00  0.00  0.00  0.00  0.00  0.00  1.00  0.00  0.00
  WS02003069WS02003072    1.00   0.00  0.00  0.00  1.00  0.00  0.00  0.00  0.75  0.00
  WS02003060WS02003069    1.00   0.00  0.00  0.00  0.98  0.02  0.00  0.00  0.49  0.00
  WS02003059WS02003060    1.00   0.00  0.00  0.00  1.00  0.00  0.00  0.00  0.01  0.00
  HS02004901HS02004770    1.00   0.04  0.00  0.00  0.96  0.00  0.00  0.00  0.00  0.00
  HS02004876HS02004881    1.00   0.01  0.00  0.00  0.89  0.10  0.00  0.00  0.00  0.00
  HS02004870HS02004876    1.00   0.00  0.00  0.00  1.00  0.00  0.00  0.00  0.95  0.00
  HS02004842HS02004848    1.00   0.00  0.04  0.00  0.96  0.00  0.00  0.00  0.58  0.00
  HS02004837HS02004842    1.00   0.00  0.00  0.00  1.00  0.00  0.00  0.00  0.11  0.00
  HS02004830HS02004837    1.00   0.00  0.00  0.00  1.00  0.00  0.00  0.00  0.99  0.00
  HS02004824HS02004830    1.00   0.00  0.00  0.00  1.00  0.00  0.00  0.00  0.00  0.00
  HS02004817HS02004824    1.00   0.00  0.00  0.00  1.00  0.00  0.00  0.00  1.00  0.00
  HS02004770HS02004777    1.00   0.00  0.04  0.00  0.96  0.00  0.00  0.00  0.03  0.00
  HS02004799HS02004480    1.00   0.00  0.01  0.00  0.95  0.00  0.04  0.00  0.00  0.00
  HS02004792HS02004799    1.00   0.00  0.00  0.00  1.00  0.00  0.00  0.00  0.98  0.00
  HS02004788HS02004792    1.00   0.00  0.00  0.00  1.00  0.00  0.00  0.00  0.98  0.00
  HS02004785HS02004788    1.00   0.00  0.00  0.00  1.00  0.00  0.00  0.00  0.00  0.00
  HS02004777HS02004785    1.00   0.00  0.00  0.00  1.00  0.00  0.00  0.00  0.14  0.00
  HS02004480HS02004478    1.00   0.04  0.00  0.00  0.65  0.00  0.00  0.31  0.00  0.00
  HS02004479HS02004480    1.00   0.01  0.00  0.00  0.99  0.00  0.00  0.00  0.12  0.00
  HS02004862HS02004870    1.00   0.00  0.00  0.00  1.00  0.00  0.00  0.00  0.05  0.00
  HS02004848HS02004852    1.00   0.04  0.00  0.00  0.96  0.00  0.00  0.00  0.61  0.00
  HS02004856HS02004862    1.00   0.00  0.06  0.00  0.94  0.00  0.00  0.00  0.80  0.00
  HS02004852HS02004856    1.00   0.04  0.00  0.00  0.96  0.00  0.00  0.00  0.85  0.00
  HS02004802HS02004478    1.00   0.04  0.00  0.00  0.96  0.00  0.00  0.00  0.03  0.00
  HS02004478WS02006287    1.00   0.05  0.00  0.00  0.73  0.22  0.00  0.00  0.66  0.00
  HS02004817HS02004807    1.00   0.00  0.04  0.00  0.96  0.00  0.00  0.00  0.01  0.00
  HS02004807HS02004802    1.00   0.04  0.00  0.00  0.96  0.00  0.00  0.01  0.00  0.00
  YS02001759YS02001757    1.00   0.00  0.00  0.00  1.00  0.00  0.00  0.00  0.16  0.00
  YS02001762YS02001759    1.00   0.00  0.00  0.00  1.00  0.00  0.00  0.00  0.04  0.00
  YS02001765YS02001762    1.00   0.00  0.00  0.00  1.00  0.00  0.00  0.00  0.16  0.00
  YS02001770YS02001767    1.00   0.00  0.00  0.00  1.00  0.00  0.00  0.00  0.00  0.00
  YS02001774YS02001770    1.00   0.00  0.04  0.00  0.96  0.00  0.00  0.00  0.04  0.00
  YS02001779YS02001774    1.00   0.00  0.00  0.00  1.00  0.00  0.00  0.00  0.21  0.00
  YS02001649YS02001757    1.00   0.00  0.00  0.00  1.00  0.00  0.00  0.00  0.17  0.00
  YS02001767YS02001765    1.00   0.00  0.00  0.00  1.00  0.00  0.00  0.00  0.00  0.00
  YS02006561YS02001783    1.00   0.06  0.00  0.00  0.89  0.04  0.00  0.00  0.60  0.00
  YS02001783YS02001784    1.00   0.00  0.06  0.00  0.94  0.00  0.00  0.00  0.01  0.00
  YS02001784YS02001785    1.00   0.00  0.00  0.00  1.00  0.00  0.00  0.00  0.20  0.00
  YS02001788YS02001790    1.00   0.00  0.00  0.00  0.97  0.03  0.00  0.00  0.22  0.00
  YS02001790YS02001791    1.00   0.00  0.00  0.00  0.91  0.09  0.00  0.00  0.02  0.00
  YS02001791YS02001793    1.00   0.00  0.00  0.00  0.91  0.09  0.00  0.00  0.01  0.00
  YS02001910YS02001907    1.00   0.00  0.00  0.00  0.99  0.00  0.00  0.01  0.13  0.00
  YS02001786YS02001788    1.00   0.00  0.00  0.00  0.97  0.03  0.00  0.00  0.00  0.00
  YS02001915YS02001910    1.00   0.00  0.00  0.00  0.99  0.01  0.00  0.00  0.18  0.00
  YS02001918YS02001915    1.00   0.00  0.00  0.00  0.99  0.00  0.00  0.00  0.58  0.00
  YS02001923YS02001920    1.00   0.00  0.00  0.00  1.00  0.00  0.00  0.00  0.85  0.00
  YS02001926YS02001923    1.00   0.00  0.02  0.00  0.15  0.00  0.83  0.00  0.00  0.00
  YS02001929YS02001926    1.00   0.00  0.04  0.00  0.96  0.00  0.00  0.00  0.78  0.00
  YS02001920YS02001918    1.00   0.00  0.00  0.00  1.00  0.00  0.00  0.00  0.00  0.00
  YS02001629YS02163301    1.00   0.05  0.00  0.00  0.95  0.00  0.00  0.00  0.00  0.00
  YS02001619YS02001622    1.00   0.04  0.00  0.00  0.96  0.00  0.00  0.00  0.00  0.00
  YS02001622YS02001625    1.00   0.04  0.00  0.00  0.96  0.00  0.00  0.00  0.07  0.00
  YS02001625YS02001629    1.00   0.04  0.03  0.00  0.92  0.00  0.02  0.00  0.00  0.00
  YS02163301YS02001633    1.00   0.00  0.05  0.00  0.95  0.00  0.00  0.00  0.00  0.00
  YS02163601YS02164001    1.00   0.00  0.02  0.00  0.98  0.00  0.00  0.00  0.00  0.00
  YS02164001YS02001641    1.00   0.00  0.02  0.00  0.98  0.00  0.00  0.00  0.06  0.00
  YS02001641YS02001644    1.00   0.00  0.00  0.00  1.00  0.00  0.00  0.00  0.00  0.00
  YS02001647YS02001649    1.00   0.00  0.06  0.00  0.94  0.00  0.00  0.00  0.01  0.00
  YS02006553YS02006556    1.00   0.00  0.00  0.00  1.00  0.00  0.00  0.00  0.03  0.00
  YS02006556YS02006558    1.00   0.00  0.00  0.00  1.00  0.00  0.00  0.00  0.00  0.00
  YSB6556YSB1171          1.00   0.01  0.02  0.00  0.96  0.00  0.00  0.00  0.00  0.00
  YS02001907YS02006553    1.00   0.00  0.01  0.00  0.99  0.00  0.00  0.00  0.00  0.00
  YS02006558YS02006561    1.00   0.06  0.00  0.00  0.19  0.75  0.00  0.00  0.51  0.00
  YS02001633YS02163601    1.00   0.00  0.00  0.00  1.00  0.00  0.00  0.00  0.16  0.00
  YS02001644YS02001647    1.00   0.00  0.06  0.00  0.94  0.00  0.00  0.00  0.00  0.00
  YS02001745YS02001748    1.00   0.00  0.00  0.00  0.89  0.01  0.00  0.11  0.04  0.00
  YS02001748YS02001751    1.00   0.00  0.00  0.00  0.96  0.04  0.00  0.00  0.15  0.00
  YS02001751YS02001754    1.00   0.00  0.00  0.00  0.93  0.00  0.00  0.07  0.02  0.00
  YS02001754YS02001757    1.00   0.00  0.00  0.00  1.00  0.00  0.00  0.00  0.20  0.00
  YS02001882YS02001884    1.00   0.05  0.00  0.00  0.95  0.00  0.00  0.00  0.00  0.00
  YS02001884YS02001887    1.00   0.02  0.02  0.00  0.97  0.00  0.00  0.00  0.00  0.00
  YS02001890YS02001895    1.00   0.00  0.05  0.00  0.95  0.00  0.00  0.00  0.00  0.00
  YS02001895YS02001898    1.00   0.05  0.00  0.00  0.93  0.00  0.01  0.00  0.00  0.00
  YS02001898YS02001901    1.00   0.05  0.00  0.00  0.95  0.00  0.00  0.00  0.02  0.00
  YS02001901YS02001904    1.00   0.05  0.00  0.00  0.95  0.00  0.00  0.00  0.00  0.00
  YS02001904YS02001907    1.00   0.00  0.05  0.00  0.95  0.00  0.00  0.00  0.00  0.00
  YS02001887YS02001890    1.00   0.00  0.00  0.00  0.99  0.00  0.01  0.00  0.00  0.00
  YS02001652YS02001649    1.00   0.00  0.00  0.00  1.00  0.00  0.00  0.00  0.18  0.00
  YS02001655YS02001652    1.00   0.00  0.00  0.00  0.93  0.00  0.00  0.07  0.02  0.00
  YS02001658YS02001655    1.00   0.00  0.04  0.00  0.92  0.04  0.00  0.00  0.11  0.00
  YS02001661YS02001658    1.00   0.04  0.00  0.00  0.89  0.07  0.00  0.00  0.06  0.00
  YS02001664YS02001661    1.00   0.04  0.00  0.00  0.91  0.06  0.00  0.00  0.21  0.00
  YSB1154YSB6556          1.00   0.04  0.00  0.00  0.96  0.00  0.00  0.00  0.02  0.00
  YSB1174YSB1171          1.00   0.01  0.01  0.00  0.97  0.00  0.00  0.00  0.00  0.00
  YSB1171HS02004479       1.00   0.01  0.00  0.00  0.98  0.00  0.00  0.00  0.11  0.00
  HS02004881HS02006253    1.00   0.02  0.00  0.00  0.40  0.08  0.00  0.50  0.24  0.00
  YS02001793JiankangQianchi    1.00   0.00  0.00  0.00  1.00  0.00  0.00  0.00  0.24  0.00
  YS02001757CaochengTiaoxuchi    1.00   0.00  0.08  0.00  0.92  0.00  0.00  0.00  0.00  0.00
  WSF200WS02003060        1.00   0.00  0.10  0.00  0.31  0.59  0.00  0.00  0.37  0.00
  1                       1.00   0.00  0.00  0.00  0.00  1.00  0.00  0.00  0.27  0.00
  2                       1.00   0.97  0.00  0.00  0.00  0.03  0.00  0.00  0.01  0.00
  3                       1.00   0.83  0.00  0.00  0.00  0.17  0.00  0.00  0.00  0.00
  4                       1.00   1.00  0.00  0.00  0.00  0.00  0.00  0.00  0.00  0.00
  
  
  *************************
  Conduit Surcharge Summary
  *************************
  
  ----------------------------------------------------------------------------
                                                           Hours        Hours 
                         --------- Hours Full --------   Above Full   Capacity
  Conduit                Both Ends  Upstream  Dnstream   Normal Flow   Limited
  ----------------------------------------------------------------------------
  WS02006229WS02006228        0.57      0.59      0.57      1.32         0.56
  WS02006256WS02006235        2.91      2.91      5.84      0.59         0.01
  WS02006252WS02006251        0.05      0.05      0.13      0.11         0.01
  WS02006251WS02006249        0.01      0.01      0.01      0.04         0.01
  WS02006249WS02006248        0.01      0.01      0.01      1.43         0.01
  WS02006247WS02006245        0.01      0.01      0.01      2.07         0.01
  WS02006242WS02006240        0.01      0.01      0.01      0.11         0.01
  WS02006238WS02006235        0.01      0.01      0.09      0.01         0.01
  WS02006235WS02006234        0.01      0.01      0.01      2.71         0.01
  WS02006234WS02006232        0.01      0.01      0.17      0.01         0.01
  WS02006232WS02006231        0.01      0.01      0.17      0.01         0.01
  WS02006231WS02006230        0.01      0.01      0.01      3.11         0.01
  WS02006230WS02006229        0.78      0.95      0.78      4.17         0.76
  WS02006228WS02006109        0.57      0.68      0.57      2.09         0.57
  WS02006112WS02006115        0.01      0.01      0.44      0.01         0.01
  WS02006111WS02006112        0.01      0.01      1.55      0.01         0.01
  WS02006110WS02006113        0.01      0.01      0.62      0.01         0.01
  WS02006109WS02006110        0.13      0.13      0.68      0.14         0.01
  WS02004405WS02004406        0.01      0.01      0.01      0.34         0.01
  WS02004404WS02004405        0.01      0.01      0.01      4.25         0.01
  WS02003072WS02003073        0.01      0.01      0.01      0.81         0.01
  HS02004480HS02004478        0.01      0.01      0.01      0.25         0.01
  YS02001759YS02001757        5.66      5.66      5.74      0.01         0.01
  YS02001762YS02001759        5.64      5.64      5.66      0.01         0.01
  YS02001765YS02001762        5.62      5.62      5.64      0.01         0.01
  YS02001770YS02001767        5.58      5.59      5.59      0.23         0.63
  YS02001774YS02001770        5.58      5.58      5.63      0.01         0.01
  YS02001779YS02001774        5.46      5.46      5.63      0.01         0.01
  YS02001649YS02001757        5.64      5.64      5.74      0.01         0.01
  YS02001767YS02001765        5.59      5.59      5.62      0.01         0.01
  YS02006561YS02001783        0.67      0.67      1.47      0.01         0.01
  YS02001783YS02001784        1.47      1.47      1.54      1.06         1.09
  YS02001784YS02001785        1.47      1.54      1.47      2.08         1.47
  YS02001788YS02001790        1.45      1.45      5.75      0.01         0.01
  YS02001790YS02001791        5.75      5.75      5.77      0.50         0.49
  YS02001791YS02001793        5.77      5.77      5.83      0.01         0.01
  YS02001910YS02001907        1.01      1.01      1.52      0.01         0.01
  YS02001786YS02001788        1.45      1.47      1.45      1.66         1.45
  YS02001915YS02001910        0.79      0.79      1.01      0.01         0.01
  YS02001918YS02001915        0.53      0.53      0.79      0.01         0.01
  YS02001923YS02001920        0.32      0.32      0.57      0.01         0.01
  YS02001920YS02001918        0.53      0.53      0.57      0.01         0.01
  YS02001629YS02163301        5.57      5.57      5.58      0.01         0.01
  YS02001619YS02001622        5.27      5.27      5.31      0.01         0.01
  YS02001622YS02001625        5.31      5.31      5.55      0.01         0.01
  YS02001625YS02001629        5.28      5.28      5.55      0.01         0.01
  YS02163301YS02001633        5.58      5.58      5.61      0.01         0.01
  YS02163601YS02164001        5.61      5.61      5.64      0.01         0.01
  YS02164001YS02001641        5.61      5.61      5.62      0.01         0.02
  YS02001641YS02001644        5.62      5.62      5.62      1.22         1.25
  YS02001647YS02001649        5.53      5.53      5.64      0.01         0.01
  YS02006553YS02006556        1.24      1.24      1.60      0.01         0.01
  YS02006556YS02006558        1.38      1.38      1.67      0.01         0.01
  YS02001907YS02006553        2.12      2.12      2.33      0.01         0.01
  YS02006558YS02006561        0.90      1.20      0.90      1.93         0.90
  YS02001633YS02163601        5.61      5.61      5.64      0.01         0.01
  YS02001644YS02001647        5.53      5.53      5.62      0.01         0.01
  YS02001745YS02001748        0.01      0.01      5.10      0.01         0.01
  YS02001748YS02001751        5.16      5.16      5.29      0.01         0.01
  YS02001751YS02001754        5.29      5.29      5.48      0.01         0.01
  YS02001754YS02001757        5.53      5.53      5.74      0.01         0.01
  YS02001882YS02001884        0.80      0.80      0.84      0.01         0.01
  YS02001884YS02001887        0.90      0.90      0.93      0.01         0.01
  YS02001890YS02001895        0.77      0.77      1.03      0.01         0.01
  YS02001895YS02001898        0.76      0.76      0.77      0.01         0.01
  YS02001898YS02001901        0.78      0.78      0.90      0.01         0.01
  YS02001901YS02001904        0.87      0.87      0.90      0.01         0.01
  YS02001904YS02001907        0.87      0.87      1.61      0.01         0.01
  YS02001887YS02001890        0.97      0.97      0.99      0.01         0.01
  YS02001652YS02001649        5.54      5.54      5.64      0.01         0.01
  YS02001655YS02001652        5.30      5.30      5.52      0.01         0.01
  YS02001658YS02001655        5.13      5.13      5.30      0.01         0.01
  YS02001661YS02001658        0.11      0.11      5.13      0.01         0.01
  YS02001664YS02001661        0.01      0.01      0.83      0.01         0.01
  YS02001793JiankangQianchi        5.81      5.81      7.82      0.01         0.01
  YS02001757CaochengTiaoxuchi        4.99      4.99      5.74      0.01         0.01
  
  
  ***************
  Pumping Summary
  ***************
  
  ---------------------------------------------------------------------------------------------------------
                                                  Min       Avg       Max     Total     Power    % Time Off
                        Percent   Number of      Flow      Flow      Flow    Volume     Usage    Pump Curve
  Pump                 Utilized   Start-Ups       LPS       LPS       LPS  10^6 ltr     Kw-hr    Low   High
  ---------------------------------------------------------------------------------------------------------
  CC-Pump-1               14.12           4      0.00    103.41    199.94     0.373      0.32    0.0    9.6
  CC-Pump-2               38.30           6      0.00    122.43    200.00     1.200      0.97    0.0    0.0
  JK-Pump-1                4.26           1      0.00    150.00    299.88     0.180      0.68    0.0    0.0
  JK-Pump-2                8.52           1      0.00    169.41    299.92     0.360      1.37    0.0    0.0
  XR-Pump-1               72.36           5      0.00     67.56     95.00     1.283      6.32    0.0    0.0
  XR-Pump-2               12.77           3      0.00     44.24     94.85     0.171      1.02    0.0    0.0
  XR-Pump-3               12.76           3      0.00     49.69     94.97     0.171      0.77    0.0    0.0
  XR-Pump-4               38.29           7      0.00     59.50     95.00     0.599      3.55    0.0    0.0
  

  Analysis begun on:  Thu Jan  6 18:59:03 2022
  Analysis ended on:  Thu Jan  6 18:59:05 2022
  Total elapsed time: 00:00:02