
  EPA STORM WATER MANAGEMENT MODEL - VERSION 5.1 (Build 5.3.0.dev0)
  --------------------------------------------------------------

  WARNING 04: minimum elevation drop used for Conduit WS02004404WS02004405
  WARNING 03: negative offset ignored for Link YS02001904YS02001907
  
  *********************************************************
  NOTE: The summary statistics displayed in this report are
  based on results found at every computational time step,  
  not just on results from each reporting time step.
  *********************************************************
  
  ****************
  Analysis Options
  ****************
  Flow Units ............... LPS
  Process Models:
    Rainfall/Runoff ........ YES
    RDII ................... NO
    Snowmelt ............... NO
    Groundwater ............ NO
    Flow Routing ........... YES
    Ponding Allowed ........ NO
    Water Quality .......... NO
  Infiltration Method ...... HORTON
  Flow Routing Method ...... DYNWAVE
  Surcharge Method ......... EXTRAN
  Starting Date ............ 08/28/2015 08:00:00
  Ending Date .............. 08/28/2015 15:50:00
  Antecedent Dry Days ...... 8.0
  Report Time Step ......... 00:01:00
  Wet Time Step ............ 00:01:00
  Dry Time Step ............ 00:01:00
  Routing Time Step ........ 5.00 sec
  Variable Time Step ....... YES
  Maximum Trials ........... 8
  Number of Threads ........ 4
  Head Tolerance ........... 0.001500 m
  
  
  **************************        Volume         Depth
  Runoff Quantity Continuity     hectare-m            mm
  **************************     ---------       -------
  Total Precipitation ......         5.556        12.164
  Evaporation Loss .........         0.000         0.000
  Infiltration Loss ........         1.427         3.124
  Surface Runoff ...........         3.072         6.726
  Final Storage ............         1.058         2.316
  Continuity Error (%) .....        -0.016
  
  
  **************************        Volume        Volume
  Flow Routing Continuity        hectare-m      10^6 ltr
  **************************     ---------     ---------
  Dry Weather Inflow .......         0.616         6.165
  Wet Weather Inflow .......         3.071        30.709
  Groundwater Inflow .......         0.000         0.000
  RDII Inflow ..............         0.000         0.000
  External Inflow ..........         0.102         1.024
  External Outflow .........         0.828         8.277
  Flooding Loss ............         2.398        23.982
  Evaporation Loss .........         0.000         0.000
  Exfiltration Loss ........         0.000         0.000
  Initial Stored Volume ....         0.076         0.761
  Final Stored Volume ......         0.642         6.420
  Continuity Error (%) .....        -0.055
  
  
  *************************
  Highest Continuity Errors
  *************************
  Node HS02004842 (16.24%)
  Node YS02001884 (12.27%)
  Node YSB1171 (3.12%)
  Node HS02004817 (2.99%)
  Node HS02004901 (2.32%)
  
  
  ***************************
  Time-Step Critical Elements
  ***************************
  Link WS02006252WS02006251 (54.00%)
  Link 3 (29.34%)
  Link WS02006280WS02006229 (4.80%)
  Link WS02006238WS02006235 (2.90%)
  Link YS02006556YS02006558 (2.28%)
  
  
  ********************************
  Highest Flow Instability Indexes
  ********************************
  Link WS02006113WS02006111 (46)
  Link YS02163601YS02164001 (42)
  Link YS02163301YS02001633 (42)
  Link YS02001619YS02001622 (41)
  Link YS02001629YS02163301 (41)
  
  
  *************************
  Routing Time Step Summary
  *************************
  Minimum Time Step           :     0.50 sec
  Average Time Step           :     1.13 sec
  Maximum Time Step           :     5.00 sec
  Percent in Steady State     :    -0.00
  Average Iterations per Step :     4.38
  Percent Not Converging      :    20.55
  
  
  ***************************
  Subcatchment Runoff Summary
  ***************************
  
  ------------------------------------------------------------------------------------------------------------------------------
                            Total      Total      Total      Total     Imperv       Perv      Total       Total     Peak  Runoff
                           Precip      Runon       Evap      Infil     Runoff     Runoff     Runoff      Runoff   Runoff   Coeff
  Subcatchment                 mm         mm         mm         mm         mm         mm         mm    10^6 ltr      LPS
  ------------------------------------------------------------------------------------------------------------------------------
  sub0                      12.16       0.00       0.00       0.85      10.05       0.00      10.05        0.01     1.91   0.826
  sub1                      12.16       0.00       0.00       1.34       9.56       0.00       9.56        0.06    14.15   0.786
  sub2                      12.16       0.00       0.00       4.50       6.75       0.00       6.75        0.06    13.75   0.555
  sub3                      12.16       0.00       0.00       4.50       6.71       0.00       6.71        0.15    32.07   0.552
  sub4                      12.16       0.00       0.00       1.34       9.40       0.00       9.40        0.20    40.20   0.773
  sub5                      12.16       0.00       0.00       0.85       9.99       0.00       9.99        0.11    25.19   0.822
  sub7                      12.16       0.00       0.00       1.09       9.81       0.00       9.81        0.03     7.55   0.807
  sub8                      12.16       0.00       0.00       1.09       9.80       0.00       9.80        0.06    14.17   0.806
  sub9                      12.16       0.00       0.00       1.09       9.80       0.00       9.80        0.05    10.64   0.806
  sub10                     12.16       0.00       0.00       0.97       9.89       0.00       9.89        0.11    24.40   0.813
  sub11                     12.16       0.00       0.00       0.97       9.91       0.00       9.91        0.12    26.15   0.815
  sub12                     12.16       0.00       0.00       1.58       9.39       0.00       9.39        0.08    19.06   0.772
  sub14                     12.16       0.00       0.00       1.09       9.80       0.00       9.80        0.09    21.02   0.805
  sub15                     12.16       0.00       0.00       3.65       7.53       0.00       7.53        0.13    29.11   0.619
  sub16                     12.16       0.00       0.00       4.01       7.23       0.00       7.23        0.08    17.47   0.594
  sub17                     12.16       0.00       0.00       3.89       7.34       0.00       7.34        0.06    14.47   0.603
  sub22                     12.16       0.00       0.00       5.23       6.14       0.00       6.14        0.39    88.27   0.505
  sub23                     12.16       0.00       0.00       4.50       6.79       0.00       6.79        0.32    73.89   0.558
  sub60                     12.16       0.00       0.00       1.46       7.71       0.00       7.71        2.34   297.17   0.634
  sub61                     12.16       0.00       0.00       2.07       7.87       0.00       7.87        2.43   359.80   0.647
  sub62                     12.16       0.00       0.00       0.97       8.55       0.00       8.55        2.63   372.87   0.703
  sub63                     12.16       0.00       0.00       3.53       6.89       0.00       6.89        2.09   327.80   0.567
  sub64                     12.16       0.00       0.00       1.82       7.40       0.00       7.40        2.25   282.66   0.608
  sub65                     12.16       0.00       0.00       1.58       7.52       0.00       7.52        2.31   287.20   0.618
  sub66                     12.16       0.00       0.00       3.53       6.36       0.00       6.36        1.95   257.27   0.523
  sub67                     12.16       0.00       0.00       0.97       9.05       0.00       9.05        2.79   452.90   0.744
  sub68                     12.16       0.00       0.00       1.70       8.28       0.00       8.28        2.55   391.99   0.681
  sub69                     12.16       0.00       0.00       1.82       8.61       0.00       8.61        2.01   355.79   0.708
  sub70                     12.16       8.79       0.00       7.03      11.43       0.10      11.53        2.64   335.00   0.550
  sub71                     12.16       0.00       0.00       0.97       8.31       0.00       8.31        1.96   263.63   0.683
  sub72                     12.16       0.00       0.00       0.85       6.56       0.00       6.56        1.34   129.40   0.540
  sub73                     12.16      11.23       0.00       7.88      12.47       0.08      12.54        2.95   300.52   0.536
  sub74                     12.16       0.00       0.00       9.12       2.57       0.00       2.57        1.03   189.59   0.211
  
  
  ******************
  Node Depth Summary
  ******************
  
  ---------------------------------------------------------------------------------
                                 Average  Maximum  Maximum  Time of Max    Reported
                                   Depth    Depth      HGL   Occurrence   Max Depth
  Node                 Type       Meters   Meters   Meters  days hr:min      Meters
  ---------------------------------------------------------------------------------
  WS02001211           JUNCTION     0.45     0.63     5.47     0  02:40        0.63
  WS02001212           JUNCTION     0.21     0.37     5.44     0  02:41        0.37
  WS02001213           JUNCTION     0.44     0.64     5.40     0  02:42        0.64
  WS02003069           JUNCTION     0.30     0.51     5.09     0  02:46        0.51
  WS02003072           JUNCTION     0.36     0.57     4.94     0  02:47        0.57
  WS02003073           JUNCTION     0.21     0.35     4.41     0  02:48        0.35
  WS02003060           JUNCTION     0.27     0.45     5.38     0  02:46        0.45
  WS02003066           JUNCTION     0.19     0.31     5.86     0  02:49        0.31
  WS02003059           JUNCTION     0.51     0.71     5.39     0  02:44        0.71
  WS02003067           JUNCTION     0.49     0.71     6.03     0  02:48        0.71
  WS02004401           JUNCTION     0.58     0.88     6.88     0  02:46        0.88
  WS02004402           JUNCTION     0.61     0.90     6.86     0  02:46        0.90
  WS02004403           JUNCTION     0.63     0.92     6.85     0  02:46        0.91
  WS02004404           JUNCTION     0.71     0.99     6.84     0  02:46        0.99
  WS02004406           JUNCTION     0.72     0.97     6.80     0  02:46        0.97
  WS02004409           JUNCTION     0.39     0.69     6.46     0  02:48        0.69
  WS02004410           JUNCTION     0.41     0.70     6.42     0  02:48        0.70
  WS02004411           JUNCTION     0.43     0.71     6.39     0  02:49        0.71
  WS02004412           JUNCTION     0.45     0.71     6.35     0  02:49        0.71
  WS02004413           JUNCTION     0.61     0.87     6.34     0  02:49        0.87
  WS02004405           JUNCTION     0.71     0.98     6.83     0  02:46        0.98
  WS02006109           JUNCTION     0.65     1.00     7.61     0  02:44        0.99
  WS02006110           JUNCTION     0.65     0.94     7.52     0  02:44        0.94
  WS02006111           JUNCTION     0.18     0.29     7.00     0  02:45        0.29
  WS02006112           JUNCTION     0.73     1.12     7.00     0  02:44        1.11
  WS02006113           JUNCTION     0.27     0.47     7.36     0  02:45        0.47
  WS02006115           JUNCTION     0.47     0.78     6.92     0  02:46        0.78
  WS02006116           JUNCTION     0.55     0.86     6.90     0  02:46        0.86
  WS02006230           JUNCTION     0.58     1.02     7.77     0  02:43        1.02
  WS02006231           JUNCTION     0.36     0.67     7.79     0  02:14        0.67
  WS02006232           JUNCTION     0.48     0.78     7.82     0  02:14        0.78
  WS02006234           JUNCTION     0.38     0.71     7.86     0  02:13        0.70
  WS02006235           JUNCTION     0.40     0.73     7.89     0  02:13        0.73
  WS02006238           JUNCTION     0.43     0.75     7.90     0  03:12        0.75
  WS02006240           JUNCTION     0.32     0.68     7.97     0  03:12        0.68
  WS02006242           JUNCTION     0.38     0.75     8.01     0  03:12        0.74
  WS02006243           JUNCTION     0.26     0.63     8.05     0  03:12        0.63
  WS02006245           JUNCTION     0.25     0.60     8.09     0  03:12        0.60
  WS02006247           JUNCTION     0.27     0.61     8.11     0  03:12        0.61
  WS02006248           JUNCTION     0.23     0.55     8.14     0  03:11        0.55
  WS02006249           JUNCTION     0.26     0.58     8.18     0  02:10        0.58
  WS02006239           JUNCTION     0.38     0.73     7.94     0  02:13        0.73
  WS02006251           JUNCTION     0.25     0.62     8.29     0  02:10        0.62
  WS02006252           JUNCTION     0.22     0.59     8.83     0  03:10        0.59
  WS02006253           JUNCTION     0.28     0.66     8.30     0  02:10        0.64
  WS02006256           JUNCTION     0.81     1.15     8.09     0  00:00        1.11
  WS02004138           JUNCTION     0.06     0.14     7.39     0  02:33        0.14
  WS02004407           JUNCTION     0.18     0.31     6.62     0  02:47        0.31
  WS02006228           JUNCTION     0.64     1.05     7.70     0  02:43        1.04
  WS02006229           JUNCTION     0.61     1.04     7.74     0  02:44        1.04
  WS02006280           JUNCTION     0.07     0.19     8.46     0  03:02        0.19
  WS02006284           JUNCTION     0.37     0.55     8.95     0  03:02        0.55
  WS02006287           JUNCTION     0.10     0.28     9.24     0  03:01        0.28
  WSF200               JUNCTION     0.17     0.31     5.54     0  02:49        0.31
  HS02004901           JUNCTION     0.13     0.28    10.10     0  03:01        0.28
  HS02004881           JUNCTION     0.01     0.04     9.07     0  03:01        0.04
  HS02004876           JUNCTION     0.05     0.12     9.15     0  03:01        0.12
  HS02004870           JUNCTION     0.02     0.06     9.35     0  03:01        0.06
  HS02004862           JUNCTION     0.02     0.07     9.46     0  03:01        0.07
  HS02004856           JUNCTION     0.08     0.13     9.55     0  03:01        0.13
  HS02004852           JUNCTION     0.01     0.05     9.56     0  03:01        0.05
  HS02004848           JUNCTION     0.01     0.05     9.65     0  03:01        0.05
  HS02004842           JUNCTION     0.33     0.38     9.65     0  03:01        0.38
  HS02004837           JUNCTION     0.03     0.07     9.65     0  03:01        0.07
  HS02004830           JUNCTION     0.04     0.08     9.55     0  03:01        0.08
  HS02004824           JUNCTION     0.02     0.06     9.46     0  03:01        0.06
  HS02004817           JUNCTION     0.44     0.60     9.44     0  03:01        0.60
  HS02004807           JUNCTION     0.13     0.27     9.44     0  03:01        0.27
  HS02004802           JUNCTION     0.17     0.30     9.43     0  03:01        0.30
  HS02004799           JUNCTION     0.13     0.33     9.54     0  03:01        0.33
  HS02004792           JUNCTION     0.04     0.14     9.66     0  03:01        0.14
  HS02004788           JUNCTION     0.03     0.10    10.00     0  03:01        0.10
  HS02004785           JUNCTION     0.05     0.17    10.07     0  03:01        0.17
  HS02004777           JUNCTION     0.15     0.30    10.10     0  03:01        0.30
  HS02004770           JUNCTION     0.12     0.27    10.10     0  03:01        0.27
  HS02004480           JUNCTION     0.09     0.26     9.50     0  03:01        0.26
  HS02004479           JUNCTION     0.12     0.30     9.50     0  03:01        0.30
  HS02004478           JUNCTION     0.07     0.18     9.41     0  03:01        0.18
  YS02001745           JUNCTION     0.66     0.89     8.41     0  03:28        0.89
  YS02001748           JUNCTION     1.04     1.99     9.07     0  02:42        1.32
  YS02001751           JUNCTION     1.21     1.94     8.82     0  02:42        1.57
  YS02001754           JUNCTION     1.46     1.96     8.57     0  02:42        1.80
  YS02001762           JUNCTION     1.66     2.03     8.43     0  03:15        2.02
  YS02001765           JUNCTION     1.61     1.98     8.43     0  03:04        1.97
  YS02001767           JUNCTION     1.58     1.93     8.42     0  03:14        1.93
  YS02001770           JUNCTION     1.57     1.91     8.41     0  03:38        1.90
  YS02001774           JUNCTION     1.64     1.97     8.40     0  03:34        1.96
  YS02001779           JUNCTION     1.39     1.68     8.37     0  02:42        1.68
  YS02001882           JUNCTION     0.51     1.62     8.33     0  02:52        1.61
  YS02001884           JUNCTION     0.60     1.71     8.33     0  02:52        1.70
  YS02001759           JUNCTION     1.69     2.07     8.43     0  03:06        2.06
  YS02001887           JUNCTION     0.68     1.79     8.33     0  02:52        1.78
  YS02001890           JUNCTION     0.71     1.81     8.32     0  02:52        1.80
  YS02001898           JUNCTION     0.48     1.56     8.29     0  02:52        1.54
  YS02001901           JUNCTION     0.60     1.67     8.28     0  02:52        1.67
  YS02001904           JUNCTION     0.58     1.63     8.26     0  03:01        1.63
  YS02001907           JUNCTION     0.90     1.96     8.25     0  02:52        1.96
  YS02001910           JUNCTION     0.69     1.77     8.28     0  02:53        1.76
  YS02001915           JUNCTION     0.50     1.58     8.30     0  02:53        1.58
  YS02001918           JUNCTION     0.25     1.25     8.32     0  02:53        1.25
  YS02001619           JUNCTION     1.18     1.61     8.54     0  02:37        1.47
  YS02001629           JUNCTION     1.52     1.85     8.40     0  02:39        1.84
  YS02001641           JUNCTION     1.62     1.94     8.38     0  02:43        1.93
  YS02001644           JUNCTION     1.62     1.92     8.35     0  02:42        1.92
  YS02001652           JUNCTION     1.47     2.16     8.76     0  03:07        2.01
  YS02001655           JUNCTION     1.24     2.20     9.05     0  02:37        1.94
  YS02001920           JUNCTION     0.35     1.33     8.33     0  02:54        1.32
  YS02001923           JUNCTION     0.19     1.08     8.34     0  02:54        1.08
  YS02001926           JUNCTION     0.25     0.90     8.34     0  02:53        0.89
  YS02001929           JUNCTION     0.14     0.67     8.37     0  02:53        0.62
  YS02001658           JUNCTION     0.98     2.30     9.44     0  02:37        1.76
  YS02001661           JUNCTION     0.77     2.46     9.86     0  03:07        1.62
  YS02001664           JUNCTION     0.34     0.57     8.50     0  03:57        0.56
  YS02001622           JUNCTION     1.20     1.62     8.52     0  02:38        1.49
  YS02001633           JUNCTION     1.61     1.96     8.42     0  02:43        1.94
  YS02001649           JUNCTION     1.66     2.05     8.44     0  02:53        2.05
  YS02001757           JUNCTION     1.79     2.17     8.43     0  03:33        2.16
  YS02001895           JUNCTION     0.48     1.56     8.30     0  02:52        1.55
  YS02001625           JUNCTION     1.48     1.78     8.38     0  02:38        1.78
  YS02163301           JUNCTION     1.55     1.90     8.42     0  02:40        1.88
  YS02163601           JUNCTION     1.66     2.01     8.41     0  02:43        1.98
  YS02164001           JUNCTION     1.60     1.94     8.40     0  02:43        1.91
  YS02001647           JUNCTION     1.46     1.80     8.41     0  03:03        1.79
  YSB1154              JUNCTION     0.26     0.45     9.51     0  03:01        0.45
  YSB6556              JUNCTION     0.16     0.34     9.51     0  03:01        0.34
  YSB1174              JUNCTION     0.21     0.40     9.51     0  03:01        0.40
  YSB1171              JUNCTION     0.41     0.60     9.51     0  03:01        0.60
  YS02006553           JUNCTION     0.90     1.96     8.25     0  02:55        1.96
  YS02006561           JUNCTION     0.29     1.08     7.74     0  03:03        1.07
  YS02006556           JUNCTION     0.87     1.92     8.23     0  03:00        1.91
  YS02006558           JUNCTION     0.91     1.96     8.22     0  03:00        1.95
  YS02001783           JUNCTION     0.59     1.48     7.62     0  02:52        1.46
  YS02001784           JUNCTION     0.62     1.42     7.48     0  02:52        1.41
  YS02001786           JUNCTION     0.59     1.26     7.29     0  03:05        1.26
  YS02001788           JUNCTION     0.58     1.13     7.11     0  02:59        1.12
  YS02001790           JUNCTION     0.81     1.80     7.44     0  02:20        1.29
  YS02001791           JUNCTION     0.89     1.93     7.40     0  02:20        1.27
  YS02001793           JUNCTION     1.37     1.94     6.78     0  02:20        1.80
  WS02004139           JUNCTION     0.38     0.57     5.48     0  02:40        0.57
  WSC                  OUTFALL      0.21     0.35     1.02     0  02:48        0.35
  3                    OUTFALL      0.03     0.13     6.13     0  00:00        0.11
  4                    OUTFALL      0.00     0.08     7.08     0  02:11        0.08
  5                    OUTFALL      0.00     0.00     5.00     0  00:00        0.00
  JK-storage           STORAGE      4.88     5.80     6.60     0  02:21        5.80
  CC-storage           STORAGE      1.03     1.40     8.40     0  03:27        1.40
  XR-storage           STORAGE      7.64     7.72     5.72     0  00:31        7.72
  
  
  *******************
  Node Inflow Summary
  *******************
  
  -------------------------------------------------------------------------------------------------
                                  Maximum  Maximum                  Lateral       Total        Flow
                                  Lateral    Total  Time of Max      Inflow      Inflow     Balance
                                   Inflow   Inflow   Occurrence      Volume      Volume       Error
  Node                 Type           LPS      LPS  days hr:min    10^6 ltr    10^6 ltr     Percent
  -------------------------------------------------------------------------------------------------
  WS02001211           JUNCTION      7.35   197.39     0  02:37       0.207        1.69       0.805
  WS02001212           JUNCTION      0.00   196.93     0  02:37           0        1.68       0.289
  WS02001213           JUNCTION      0.00   196.36     0  02:37           0        1.67       0.704
  WS02003069           JUNCTION      0.32   736.10     0  02:46     0.00902        7.41       0.172
  WS02003072           JUNCTION      0.00   736.00     0  02:47           0         7.4       0.246
  WS02003073           JUNCTION      1.82   737.77     0  02:47      0.0514        7.43       0.253
  WS02003060           JUNCTION     16.53   735.92     0  02:45       0.466        7.43       0.163
  WS02003066           JUNCTION      0.00   568.59     0  02:49           0        5.32       0.056
  WS02003059           JUNCTION      0.00   195.48     0  02:36           0        1.67       1.452
  WS02003067           JUNCTION      0.00   568.54     0  02:49           0        5.33       0.127
  WS02004401           JUNCTION      0.00   572.23     0  02:46           0        5.49       0.262
  WS02004402           JUNCTION      0.00   571.69     0  02:46           0        5.47       0.258
  WS02004403           JUNCTION      0.00   571.37     0  02:46           0        5.46       0.244
  WS02004404           JUNCTION      0.16   571.46     0  02:46     0.00457        5.45       0.194
  WS02004406           JUNCTION      0.00   571.25     0  02:46           0        5.42       0.478
  WS02004409           JUNCTION      0.00   571.03     0  02:47           0        5.39       0.164
  WS02004410           JUNCTION      0.00   570.18     0  02:47           0        5.38       0.204
  WS02004411           JUNCTION      0.00   569.35     0  02:47           0        5.37       0.223
  WS02004412           JUNCTION      0.00   568.90     0  02:48           0        5.36       0.260
  WS02004413           JUNCTION      0.00   568.68     0  02:49           0        5.35       0.409
  WS02004405           JUNCTION      0.04   571.42     0  02:46     0.00107        5.44       0.292
  WS02006109           JUNCTION      1.23   561.27     0  02:44      0.0347        5.49       0.149
  WS02006110           JUNCTION      0.00   561.18     0  02:44           0        5.48       0.196
  WS02006111           JUNCTION      0.00   584.76     0  02:45           0        5.47       0.030
  WS02006112           JUNCTION     14.47   579.17     0  02:44      0.0629        5.53       0.381
  WS02006113           JUNCTION      0.00   561.95     0  02:44           0        5.47       0.063
  WS02006115           JUNCTION      0.00   586.21     0  02:45           0        5.51       0.196
  WS02006116           JUNCTION      0.00   573.40     0  02:46           0         5.5       0.203
  WS02006230           JUNCTION     10.28   320.03     0  03:15        0.29        3.59       0.238
  WS02006231           JUNCTION      0.00   306.09     0  03:15           0         3.3      -0.021
  WS02006232           JUNCTION      0.00   305.99     0  03:15           0        3.31       0.207
  WS02006234           JUNCTION      0.00   306.29     0  03:12           0        3.31      -0.091
  WS02006235           JUNCTION      0.00   309.01     0  02:11           0        3.35       0.207
  WS02006238           JUNCTION      0.00   312.56     0  02:11           0        2.22      -0.081
  WS02006240           JUNCTION      0.00   331.61     0  02:11           0        2.18       0.079
  WS02006242           JUNCTION      0.00   339.27     0  02:11           0        2.17       0.112
  WS02006243           JUNCTION      0.00   346.73     0  02:10           0        2.15      -0.654
  WS02006245           JUNCTION      0.00   351.75     0  02:10           0        2.16       0.527
  WS02006247           JUNCTION      0.00   357.38     0  02:10           0        2.16       0.060
  WS02006248           JUNCTION      0.00   363.20     0  02:10           0        2.15      -0.216
  WS02006249           JUNCTION      0.00   432.21     0  02:10           0        2.19       0.337
  WS02006239           JUNCTION      0.00   319.63     0  02:11           0        2.19      -0.364
  WS02006251           JUNCTION      0.08   435.29     0  02:10     0.00217        2.21      -0.032
  WS02006252           JUNCTION      0.00   399.61     0  02:10           0        1.83       0.005
  WS02006253           JUNCTION      1.91    80.97     0  03:01     0.00814       0.382       0.006
  WS02006256           JUNCTION      0.00   300.00     0  05:20           0        1.98       0.098
  WS02004138           JUNCTION      0.00   190.00     0  02:30           0        1.48      -0.067
  WS02004407           JUNCTION      0.00   571.25     0  02:47           0         5.4       0.069
  WS02006228           JUNCTION      0.00   560.12     0  02:44           0        5.46       0.145
  WS02006229           JUNCTION      0.00   559.46     0  02:44           0        5.47       0.178
  WS02006280           JUNCTION      0.00   375.53     0  03:02           0        1.89       0.004
  WS02006284           JUNCTION      0.10   375.53     0  03:02      0.0027        1.89       0.064
  WS02006287           JUNCTION      0.00   375.25     0  03:01           0        1.89       0.038
  WSF200               JUNCTION      0.00   568.68     0  02:49           0        5.32       0.043
  HS02004901           JUNCTION     17.47    17.47     0  03:01      0.0757      0.0759       2.380
  HS02004881           JUNCTION      7.55    79.18     0  03:01      0.0331       0.357       0.058
  HS02004876           JUNCTION     14.15    72.10     0  03:01      0.0636       0.324       0.171
  HS02004870           JUNCTION     14.17    58.26     0  03:01      0.0626       0.261       0.043
  HS02004862           JUNCTION     13.95    44.46     0  03:01      0.0685       0.198       0.089
  HS02004856           JUNCTION     10.64    30.79     0  03:01      0.0471       0.131       1.113
  HS02004852           JUNCTION      0.00    20.44     0  03:01           0       0.084       0.069
  HS02004848           JUNCTION     32.07    32.07     0  03:01       0.151       0.151       0.033
  HS02004842           JUNCTION      0.00    11.42     0  03:01           0      0.0801      19.389
  HS02004837           JUNCTION     30.75    41.91     0  03:01       0.288       0.355       0.229
  HS02004830           JUNCTION      0.15    41.84     0  03:01     0.00423       0.346       0.359
  HS02004824           JUNCTION     40.25    81.79     0  03:01       0.197       0.542       0.100
  HS02004817           JUNCTION      0.60    82.18     0  03:01      0.0169       0.558       3.079
  HS02004807           JUNCTION     26.15   107.23     0  03:01       0.115       0.657       0.656
  HS02004802           JUNCTION      0.00   106.48     0  03:01           0       0.653       0.618
  HS02004799           JUNCTION     21.02   227.51     0  03:01      0.0932        1.06       0.236
  HS02004792           JUNCTION     88.55   207.31     0  03:01       0.396       0.966       0.043
  HS02004788           JUNCTION     30.78   119.36     0  03:01       0.177       0.571       0.069
  HS02004785           JUNCTION      0.15    89.79     0  03:01     0.00423       0.396       0.125
  HS02004777           JUNCTION      0.03    90.24     0  03:01    0.000846       0.397       1.326
  HS02004770           JUNCTION     73.89    90.93     0  03:01       0.324       0.398       0.787
  HS02004480           JUNCTION      0.00   269.27     0  03:01           0        1.25       0.099
  HS02004479           JUNCTION      0.00    42.82     0  03:02           0       0.204       0.360
  HS02004478           JUNCTION      0.00   375.15     0  03:01           0        1.89       0.018
  YS02001745           JUNCTION    297.18   318.42     0  02:41        2.34        2.34       0.482
  YS02001748           JUNCTION      0.04   522.67     0  02:42     0.00127        2.33       0.994
  YS02001751           JUNCTION      0.01   307.81     0  03:00     0.00031         2.3       1.040
  YS02001754           JUNCTION      0.26   307.30     0  03:00     0.00733        2.29       1.090
  YS02001762           JUNCTION      0.00   326.56     0  02:52           0        1.71       1.256
  YS02001765           JUNCTION      0.00   326.81     0  02:53           0        1.71       1.426
  YS02001767           JUNCTION      0.54   327.26     0  02:53      0.0151        1.73       2.103
  YS02001770           JUNCTION    373.02   403.52     0  03:31        2.63        2.88       1.112
  YS02001774           JUNCTION      0.00   404.78     0  03:31           0        1.39       1.820
  YS02001779           JUNCTION      0.01   404.91     0  03:31    0.000141        1.36       1.151
  YS02001882           JUNCTION      0.00    14.05     0  02:45           0      0.0155      16.502
  YS02001884           JUNCTION      0.00    22.05     0  02:44           0      0.0504      13.982
  YS02001759           JUNCTION    359.84   641.79     0  02:53        2.43        3.85       0.596
  YS02001887           JUNCTION    453.35   453.54     0  03:01         2.8        2.83       0.298
  YS02001890           JUNCTION      0.00   453.62     0  03:00           0        2.79       0.328
  YS02001898           JUNCTION      0.00   453.59     0  03:01           0        2.77       0.114
  YS02001901           JUNCTION      0.00   453.91     0  03:01           0        2.77       0.250
  YS02001904           JUNCTION      0.00   453.53     0  03:00           0        2.77       0.222
  YS02001907           JUNCTION      0.00   860.62     0  02:58           0        6.12       0.396
  YS02001910           JUNCTION      0.00   428.71     0  02:54           0        3.37       0.349
  YS02001915           JUNCTION    263.65   428.01     0  02:54        1.96        3.39       0.180
  YS02001918           JUNCTION      0.00   193.97     0  02:54           0        1.43       0.129
  YS02001619           JUNCTION    257.27   257.27     0  03:01        1.95        1.95       0.628
  YS02001629           JUNCTION      0.00   205.05     0  02:49           0        1.63       1.775
  YS02001641           JUNCTION      0.00   433.26     0  02:48           0        3.84       0.549
  YS02001644           JUNCTION    282.70  1103.48     0  03:29        2.25        9.49       0.280
  YS02001652           JUNCTION      0.00   367.72     0  03:01           0        2.04       1.146
  YS02001655           JUNCTION      0.15   366.82     0  03:01     0.00434        2.07       1.247
  YS02001920           JUNCTION      2.87   193.97     0  02:54      0.0809        1.42       0.207
  YS02001923           JUNCTION      0.04   203.79     0  02:54     0.00106        1.34       0.049
  YS02001926           JUNCTION      0.05   160.84     0  02:54     0.00147        1.34       0.246
  YS02001929           JUNCTION    129.40   129.40     0  03:01        1.34        1.34       0.040
  YS02001658           JUNCTION      0.00   652.74     0  02:38           0         2.1       1.124
  YS02001661           JUNCTION      0.00   666.46     0  02:53           0        2.52      -0.375
  YS02001664           JUNCTION    327.80   345.26     0  02:52        2.09        2.51       0.286
  YS02001622           JUNCTION      0.00   257.69     0  03:01           0        1.94       1.651
  YS02001633           JUNCTION    287.40   432.47     0  02:49        2.32         3.9       0.828
  YS02001649           JUNCTION      0.00   914.44     0  02:49           0        5.64       0.661
  YS02001757           JUNCTION      0.00  1746.05     0  02:49           0        8.24       1.132
  YS02001895           JUNCTION      0.00   453.89     0  03:01           0        2.78       0.176
  YS02001625           JUNCTION      0.00   257.39     0  03:01           0         1.9       2.065
  YS02163301           JUNCTION      0.00   206.48     0  02:37           0        1.61       1.524
  YS02163601           JUNCTION      0.11   432.07     0  02:49      0.0031        3.86       0.786
  YS02164001           JUNCTION      0.00   432.20     0  02:48           0        3.84       0.523
  YS02001647           JUNCTION      0.00   655.73     0  02:48           0        4.83       0.591
  YSB1154              JUNCTION     25.19    25.19     0  03:01       0.113       0.114       1.285
  YSB6556              JUNCTION      0.00    24.91     0  03:01           0       0.115       1.100
  YSB1174              JUNCTION     19.06    19.06     0  03:01      0.0821      0.0827       1.580
  YSB1171              JUNCTION      0.00    43.19     0  03:01           0       0.203       3.219
  YS02006553           JUNCTION      0.00   666.75     0  03:17           0         5.9       0.262
  YS02006561           JUNCTION      0.00   964.41     0  03:00           0        8.42       0.008
  YS02006556           JUNCTION      0.00   666.80     0  03:17           0         5.9       0.186
  YS02006558           JUNCTION    392.87   965.24     0  03:00        2.57        8.45       0.063
  YS02001783           JUNCTION      0.00   964.60     0  03:00           0        8.42       0.026
  YS02001784           JUNCTION      1.06   965.38     0  03:00      0.0299        8.44       0.042
  YS02001786           JUNCTION      0.06   965.33     0  03:00     0.00159        8.44       0.039
  YS02001788           JUNCTION      0.07   965.45     0  03:00       0.002        8.44       0.023
  YS02001790           JUNCTION      0.15   965.77     0  03:00     0.00437        8.44       0.020
  YS02001791           JUNCTION      0.00   965.67     0  02:59           0        8.44       0.016
  YS02001793           JUNCTION      0.00   966.24     0  02:57           0        8.44       0.140
  WS02004139           JUNCTION      0.32   190.32     0  02:33     0.00905         1.5       0.676
  WSC                  OUTFALL       0.00   737.73     0  02:48           0        7.41       0.000
  3                    OUTFALL       0.00   250.55     0  00:00           0       0.828       0.000
  4                    OUTFALL       0.00    71.68     0  02:11           0      0.0349       0.000
  5                    OUTFALL       0.00     0.00     0  00:00           0           0       0.000 ltr
  JK-storage           STORAGE       0.00   966.06     0  02:58           0        8.58       0.178
  CC-storage           STORAGE       0.00  1746.01     0  02:49           0        5.91       1.008
  XR-storage           STORAGE     690.11   690.11     0  03:01        9.61        10.2      -0.001
  
  
  **********************
  Node Surcharge Summary
  **********************
  
  Surcharging occurs when water rises above the top of the highest conduit.
  ---------------------------------------------------------------------
                                               Max. Height   Min. Depth
                                   Hours       Above Crown    Below Rim
  Node                 Type      Surcharged         Meters       Meters
  ---------------------------------------------------------------------
  WS02006109           JUNCTION        1.33          0.177        1.643
  WS02006110           JUNCTION        0.39          0.030        1.820
  WS02006112           JUNCTION        0.78          0.120        1.560
  WS02006232           JUNCTION        0.54          0.083        1.397
  WS02006235           JUNCTION        0.09          0.016        1.274
  WS02006238           JUNCTION        0.15          0.035        1.395
  WS02006242           JUNCTION        0.07          0.016        0.804
  WS02006252           JUNCTION        0.26          0.190        0.910
  WS02006228           JUNCTION        1.32          0.218        1.982
  YS02001748           JUNCTION        5.07          0.909        0.281
  YS02001751           JUNCTION        5.24          0.938        0.262
  YS02001754           JUNCTION        5.41          0.910        0.240
  YS02001762           JUNCTION        5.64          1.030        0.120
  YS02001765           JUNCTION        5.61          0.975        0.125
  YS02001767           JUNCTION        5.58          0.930        0.100
  YS02001770           JUNCTION        5.56          0.881        0.039
  YS02001774           JUNCTION        5.63          0.974        0.076
  YS02001779           JUNCTION        5.40          0.680        0.000
  YS02001882           JUNCTION        0.80          0.615        0.215
  YS02001884           JUNCTION        0.84          0.652        0.218
  YS02001759           JUNCTION        5.66          1.069        0.141
  YS02001887           JUNCTION        0.93          0.740        0.210
  YS02001890           JUNCTION        0.96          0.760        0.000
  YS02001898           JUNCTION        0.76          0.526        0.214
  YS02001901           JUNCTION        0.89          0.671        0.199
  YS02001904           JUNCTION        0.87          0.634        0.216
  YS02001907           JUNCTION        1.50          0.950        0.000
  YS02001910           JUNCTION        1.01          0.773        0.327
  YS02001915           JUNCTION        0.79          0.584        0.416
  YS02001918           JUNCTION        0.53          0.249        0.561
  YS02001619           JUNCTION        5.23          0.610        0.000
  YS02001629           JUNCTION        5.24          0.470        0.000
  YS02001641           JUNCTION        5.62          0.944        0.156
  YS02001644           JUNCTION        5.62          0.920        0.000
  YS02001652           JUNCTION        5.43          1.130        0.000
  YS02001655           JUNCTION        5.24          1.200        0.000
  YS02001920           JUNCTION        0.57          0.325        0.815
  YS02001658           JUNCTION        5.10          1.300        0.000
  YS02001661           JUNCTION        0.18          1.390        0.000
  YS02001622           JUNCTION        5.26          0.620        0.000
  YS02001633           JUNCTION        5.60          0.944        0.116
  YS02001649           JUNCTION        5.64          1.050        0.000
  YS02001757           JUNCTION        5.74          1.168        0.042
  YS02001895           JUNCTION        0.78          0.557        0.193
  YS02001625           JUNCTION        5.43          0.780        0.000
  YS02163301           JUNCTION        5.58          0.903        0.127
  YS02163601           JUNCTION        5.64          1.009        0.071
  YS02164001           JUNCTION        5.61          0.941        0.159
  YS02001647           JUNCTION        5.43          0.802        0.098
  YS02006553           JUNCTION        1.61          0.964        0.226
  YS02006561           JUNCTION        0.67          0.280        0.870
  YS02006556           JUNCTION        1.24          0.880        0.470
  YS02006558           JUNCTION        1.20          0.857        0.543
  YS02001783           JUNCTION        1.48          0.678        0.922
  YS02001784           JUNCTION        1.54          0.616        0.874
  YS02001786           JUNCTION        1.49          0.462        0.968
  YS02001788           JUNCTION        1.47          0.329        1.151
  YS02001790           JUNCTION        4.44          0.998        0.159
  YS02001791           JUNCTION        4.77          1.132        0.788
  YS02001793           JUNCTION        5.11          0.944        1.656
  
  
  *********************
  Node Flooding Summary
  *********************
  
  Flooding refers to all water that overflows a node, whether it ponds or not.
  --------------------------------------------------------------------------
                                                             Total   Maximum
                                 Maximum   Time of Max       Flood    Ponded
                        Hours       Rate    Occurrence      Volume     Depth
  Node                 Flooded       LPS   days hr:min    10^6 ltr    Meters
  --------------------------------------------------------------------------
  YS02001779              2.80    404.86      0  03:31       1.338     0.000
  YS02001890              0.01      0.25      0  02:52       0.000     0.000
  YS02001907              0.38    276.03      0  02:58       0.211     0.000
  YS02001619              0.01     18.33      0  02:37       0.000     0.000
  YS02001629              0.01     29.54      0  02:40       0.000     0.000
  YS02001644              4.96   1103.37      0  03:29       8.046     0.000
  YS02001652              0.01      8.62      0  03:13       0.000     0.000
  YS02001655              0.01     82.55      0  02:38       0.000     0.000
  YS02001658              0.01    371.32      0  02:37       0.001     0.000
  YS02001661              0.01    123.76      0  03:12       0.000     0.000
  YS02001622              0.01     38.21      0  02:39       0.000     0.000
  YS02001649              0.04     35.74      0  03:07       0.002     0.000
  YS02001625              0.84    168.19      0  03:01       0.239     0.000
  JK-storage              4.02    965.73      0  03:00       6.342     0.000
  XR-storage              7.30    690.09      0  03:01       7.805     0.000
  
  
  **********************
  Storage Volume Summary
  **********************
  
  --------------------------------------------------------------------------------------------------
                         Average     Avg  Evap Exfil       Maximum     Max    Time of Max    Maximum
                          Volume    Pcnt  Pcnt  Pcnt        Volume    Pcnt     Occurrence    Outflow
  Storage Unit           1000 m3    Full  Loss  Loss       1000 m3    Full    days hr:min        LPS
  --------------------------------------------------------------------------------------------------
  JK-storage               0.245      84     0     0         0.291     100       0  02:21     300.00
  CC-storage               2.875      18     0     0         3.905      25       0  03:27     399.61
  XR-storage               0.917      99     0     0         0.926     100       0  00:31     190.00
  
  
  ***********************
  Outfall Loading Summary
  ***********************
  
  -----------------------------------------------------------
                         Flow       Avg       Max       Total
                         Freq      Flow      Flow      Volume
  Outfall Node           Pcnt       LPS       LPS    10^6 ltr
  -----------------------------------------------------------
  WSC                   99.99    296.95    737.73       7.414
  3                     38.34    114.88    250.55       0.828
  4                      5.89     31.55     71.68       0.035
  5                      0.00      0.00      0.00       0.000
  -----------------------------------------------------------
  System                36.05    443.39    737.73       8.277
  
  
  ********************
  Link Flow Summary
  ********************
  
  -----------------------------------------------------------------------------
                                 Maximum  Time of Max   Maximum    Max/    Max/
                                  |Flow|   Occurrence   |Veloc|    Full    Full
  Link                 Type          LPS  days hr:min     m/sec    Flow   Depth
  -----------------------------------------------------------------------------
  WS02003066WSF200     CONDUIT    568.68     0  02:49      2.86    0.10    0.24
  WS02006287WS02006284 CONDUIT    375.43     0  03:02      1.98    0.17    0.29
  WS02006284WS02006280 CONDUIT    375.53     0  03:02      2.22    0.16    0.27
  WS02006280WS02006229 CONDUIT    375.57     0  03:02      3.58    0.08    0.19
  WS02006229WS02006228 CONDUIT    560.12     0  02:44      1.11    1.86    1.00
  WS02006256WS02006235 CONDUIT    166.25     0  00:01      2.58    1.76    1.00
  WS02006253WS02006251 CONDUIT     80.28     0  03:00      0.61    0.24    0.91
  WS02006252WS02006251 CONDUIT    399.84     0  02:10      3.18    1.47    1.00
  WS02006251WS02006249 CONDUIT    432.21     0  02:10      1.23    1.25    0.86
  WS02006249WS02006248 CONDUIT    363.20     0  02:10      1.15    1.99    0.80
  WS02006248WS02006247 CONDUIT    357.38     0  02:10      1.10    0.78    0.82
  WS02006247WS02006245 CONDUIT    351.75     0  02:10      1.07    2.79    0.86
  WS02006245WS02006243 CONDUIT    346.73     0  02:10      1.07    1.03    0.87
  WS02006243WS02006242 CONDUIT    339.27     0  02:11      0.95    0.72    0.95
  WS02006242WS02006240 CONDUIT    331.61     0  02:11      0.90    1.32    0.98
  WS02006240WS02006239 CONDUIT    319.63     0  02:11      0.96    1.01    0.97
  WS02006239WS02006238 CONDUIT    312.56     0  02:11      0.83    1.00    1.00
  WS02006238WS02006235 CONDUIT    309.01     0  02:11      1.25    0.69    1.00
  WS02006235WS02006234 CONDUIT    306.29     0  03:12      1.04    3.23    0.99
  WS02006234WS02006232 CONDUIT    305.99     0  03:15      1.13    0.62    1.00
  WS02006232WS02006231 CONDUIT    306.09     0  03:15      0.90    0.64    0.97
  WS02006231WS02006230 CONDUIT    309.75     0  03:15      1.25    4.70    0.93
  WS02006230WS02006229 CONDUIT    324.53     0  03:16      0.86    7.22    1.00
  WS02006228WS02006109 CONDUIT    560.04     0  02:44      1.11    2.45    1.00
  WS02006116WS02004401 CONDUIT    572.23     0  02:46      0.79    0.79    0.87
  WS02006115WS02006116 CONDUIT    573.40     0  02:46      0.86    0.74    0.79
  WS02006113WS02006111 CONDUIT    584.76     0  02:45      2.50    0.70    0.47
  WS02006112WS02006115 CONDUIT    586.21     0  02:45      0.80    0.35    0.89
  WS02006111WS02006112 CONDUIT    567.05     0  02:44      1.57    0.27    0.68
  WS02006110WS02006113 CONDUIT    561.95     0  02:44      1.32    0.51    0.79
  WS02006109WS02006110 CONDUIT    561.18     0  02:44      1.12    1.08    1.00
  WS02004411WS02004412 CONDUIT    568.90     0  02:48      0.95    0.81    0.71
  WS02004401WS02004402 CONDUIT    571.69     0  02:46      0.77    0.69    0.89
  WS02004413WS02003067 CONDUIT    568.54     0  02:49      1.15    0.24    0.60
  WS02004412WS02004413 CONDUIT    568.68     0  02:49      0.85    0.38    0.79
  WS02004410WS02004411 CONDUIT    569.35     0  02:47      0.96    0.78    0.71
  WS02004409WS02004410 CONDUIT    570.18     0  02:47      0.98    0.74    0.70
  WS02004407WS02004409 CONDUIT    571.03     0  02:47      1.47    0.20    0.50
  WS02004406WS02004407 CONDUIT    571.25     0  02:47      1.08    0.26    0.64
  WS02004405WS02004406 CONDUIT    571.25     0  02:46      0.73    1.13    0.98
  WS02004404WS02004405 CONDUIT    571.38     0  02:46      0.84    5.60    0.98
  WS02004403WS02004404 CONDUIT    571.30     0  02:46      0.74    0.41    0.95
  WS02004402WS02004403 CONDUIT    571.37     0  02:46      0.76    0.82    0.91
  WS02004139WS02001211 CONDUIT    190.04     0  02:37      0.40    0.24    0.46
  WS02004138WS02004139 CONDUIT    190.00     0  02:33      1.02    0.04    0.33
  WS02003067WS02003066 CONDUIT    568.59     0  02:49      1.25    0.18    0.42
  WS02001213WS02003059 CONDUIT    195.48     0  02:36      0.43    0.32    0.66
  WS02001212WS02001213 CONDUIT    196.36     0  02:37      1.00    0.30    0.34
  WS02001211WS02001212 CONDUIT    196.93     0  02:37      0.52    0.15    0.50
  WS02003072WS02003073 CONDUIT    735.95     0  02:47      1.59    1.59    0.43
  WS02003069WS02003072 CONDUIT    736.00     0  02:47      1.50    0.35    0.45
  WS02003060WS02003069 CONDUIT    735.78     0  02:46      1.76    0.29    0.40
  WS02003059WS02003060 CONDUIT    194.02     0  02:35      0.57    0.13    0.58
  HS02004901HS02004770 CONDUIT     17.71     0  03:01      0.07    0.07    0.39
  HS02004876HS02004881 CONDUIT     71.90     0  03:01      0.92    0.76    0.11
  HS02004870HS02004876 CONDUIT     58.03     0  03:01      0.63    0.04    0.13
  HS02004842HS02004848 CONDUIT     11.42     0  03:01      0.05    0.01    0.30
  HS02004837HS02004842 CONDUIT     11.95     0  03:02      0.41    0.01    0.32
  HS02004830HS02004837 CONDUIT     41.69     0  03:01      0.56    0.04    0.11
  HS02004824HS02004830 CONDUIT     41.66     0  03:01      0.58    0.05    0.10
  HS02004817HS02004824 CONDUIT     81.58     0  03:01      0.25    0.04    0.47
  HS02004770HS02004777 CONDUIT     90.21     0  03:01      0.32    0.16    0.41
  HS02004799HS02004480 CONDUIT    226.97     0  03:01      0.78    0.29    0.42
  HS02004792HS02004799 CONDUIT    206.60     0  03:01      0.88    0.13    0.33
  HS02004788HS02004792 CONDUIT    118.94     0  03:01      1.01    0.08    0.17
  HS02004785HS02004788 CONDUIT     89.51     0  03:02      0.66    0.67    0.19
  HS02004777HS02004785 CONDUIT     89.64     0  03:01      0.38    0.11    0.33
  HS02004480HS02004478 CONDUIT    269.11     0  03:01      1.20    1.13    0.32
  HS02004479HS02004480 CONDUIT     44.18     0  03:02      0.23    0.04    0.40
  HS02004862HS02004870 CONDUIT     44.23     0  03:01      0.64    0.05    0.10
  HS02004848HS02004852 CONDUIT     20.44     0  03:01      0.44    0.02    0.07
  HS02004856HS02004862 CONDUIT     30.57     0  03:01      0.47    0.03    0.09
  HS02004852HS02004856 CONDUIT     20.26     0  03:01      0.24    0.02    0.12
  HS02004802HS02004478 CONDUIT    106.58     0  03:02      0.45    0.09    0.35
  HS02004478WS02006287 CONDUIT    375.25     0  03:01      1.68    0.11    0.25
  HS02004817HS02004807 CONDUIT     82.18     0  03:01      0.19    0.05    0.62
  HS02004807HS02004802 CONDUIT    106.48     0  03:01      0.38    0.20    0.40
  YS02001759YS02001757 CONDUIT    641.02     0  02:53      0.82    0.46    1.00
  YS02001762YS02001759 CONDUIT    327.34     0  02:52      0.42    0.38    1.00
  YS02001765YS02001762 CONDUIT    326.56     0  02:52      0.42    0.31    1.00
  YS02001770YS02001767 CONDUIT    326.73     0  02:53      0.42    1.29    1.00
  YS02001774YS02001770 CONDUIT    404.78     0  03:31      0.52    0.26    1.00
  YS02001779YS02001774 CONDUIT    404.90     0  03:31      0.52    0.20    1.00
  YS02001649YS02001757 CONDUIT    917.37     0  02:49      1.17    0.56    1.00
  YS02001767YS02001765 CONDUIT    326.81     0  02:53      0.42    0.41    1.00
  YS02006561YS02001783 CONDUIT    964.60     0  03:00      1.99    0.50    1.00
  YS02001783YS02001784 CONDUIT    964.32     0  03:00      1.92    1.33    1.00
  YS02001784YS02001785 CONDUIT    965.28     0  03:00      1.92    2.25    1.00
  YS02001788YS02001790 CONDUIT    965.62     0  03:00      2.06    0.71    1.00
  YS02001790YS02001791 CONDUIT    965.67     0  02:59      2.43    1.05    1.00
  YS02001791YS02001793 CONDUIT    966.24     0  02:57      4.79    0.41    1.00
  YS02001910YS02001907 CONDUIT    428.27     0  02:54      0.55    0.24    1.00
  YS02001786YS02001788 CONDUIT    965.38     0  03:00      2.00    1.86    1.00
  YS02001915YS02001910 CONDUIT    428.71     0  02:54      0.55    0.21    1.00
  YS02001918YS02001915 CONDUIT    194.82     0  02:54      0.44    0.11    1.00
  YS02001923YS02001920 CONDUIT    191.10     0  02:54      0.68    0.09    1.00
  YS02001926YS02001923 CONDUIT    203.75     0  02:54      0.79    0.29    0.88
  YS02001929YS02001926 CONDUIT    160.78     0  02:54      0.84    0.08    0.78
  YS02001920YS02001918 CONDUIT    193.97     0  02:54      0.67    0.19    1.00
  YS02001629YS02163301 CONDUIT    206.48     0  02:37      0.26    0.25    1.00
  YS02001619YS02001622 CONDUIT    257.69     0  03:01      0.61    0.38    1.00
  YS02001622YS02001625 CONDUIT    257.39     0  03:01      0.33    0.14    1.00
  YS02001625YS02001629 CONDUIT    205.05     0  02:49      0.26    0.10    1.00
  YS02163301YS02001633 CONDUIT    206.48     0  02:37      0.26    0.19    1.00
  YS02163601YS02164001 CONDUIT    432.20     0  02:48      0.55    0.38    1.00
  YS02164001YS02001641 CONDUIT    433.26     0  02:48      0.55    0.59    1.00
  YS02001641YS02001644 CONDUIT    433.92     0  02:48      0.55    1.40    1.00
  YS02001647YS02001649 CONDUIT    656.38     0  02:48      0.84    0.35    1.00
  YS02006553YS02006556 CONDUIT    666.80     0  03:17      0.85    0.57    1.00
  YS02006556YS02006558 CONDUIT    666.73     0  03:17      0.85    0.53    1.00
  YSB6556YSB1171       CONDUIT     24.82     0  03:03      0.09    0.03    0.67
  YS02001907YS02006553 CONDUIT    666.75     0  03:17      0.74    0.78    1.00
  YS02006558YS02006561 CONDUIT    964.41     0  03:00      3.41    2.13    1.00
  YS02001633YS02163601 CONDUIT    431.96     0  02:49      0.55    0.45    1.00
  YS02001644YS02001647 CONDUIT    655.73     0  02:48      0.83    0.39    1.00
  YS02001745YS02001748 CONDUIT    522.63     0  02:42      1.48    0.20    0.95
  YS02001748YS02001751 CONDUIT    307.80     0  03:00      1.05    0.16    1.00
  YS02001751YS02001754 CONDUIT    307.04     0  03:00      0.88    0.15    1.00
  YS02001754YS02001757 CONDUIT    306.77     0  03:00      0.39    0.12    1.00
  YS02001882YS02001884 CONDUIT     14.05     0  02:45      0.09    0.02    1.00
  YS02001884YS02001887 CONDUIT     22.05     0  02:44      0.05    0.03    1.00
  YS02001890YS02001895 CONDUIT    453.89     0  03:01      0.58    0.21    1.00
  YS02001895YS02001898 CONDUIT    453.59     0  03:01      0.58    0.79    1.00
  YS02001898YS02001901 CONDUIT    453.91     0  03:01      0.58    0.29    1.00
  YS02001901YS02001904 CONDUIT    453.53     0  03:00      0.58    0.70    1.00
  YS02001904YS02001907 CONDUIT    453.67     0  03:01      0.58    0.16    1.00
  YS02001887YS02001890 CONDUIT    453.62     0  03:00      0.58    0.78    1.00
  YS02001652YS02001649 CONDUIT    368.89     0  03:01      0.50    0.18    1.00
  YS02001655YS02001652 CONDUIT    367.72     0  03:01      0.93    0.18    1.00
  YS02001658YS02001655 CONDUIT    366.66     0  03:01      1.21    0.16    1.00
  YS02001661YS02001658 CONDUIT    652.74     0  02:38      1.56    0.26    1.00
  YS02001664YS02001661 CONDUIT    666.46     0  02:53      1.52    0.21    0.74
  YSB1154YSB6556       CONDUIT     24.91     0  03:01      0.18    0.04    0.56
  YSB1174YSB1171       CONDUIT     18.78     0  03:01      0.07    0.03    0.68
  YSB1171HS02004479    CONDUIT     42.82     0  03:02      0.54    0.03    0.53
  HS02004881HS02006253 CONDUIT     79.15     0  03:01      2.19    0.02    0.24
  YS02001793JiankangQianchi CONDUIT    966.06     0  02:58      2.28    0.08    1.00
  YS02001757CaochengTiaoxuchi CONDUIT   1746.01     0  02:49      2.31    0.77    1.00
  WSF200WS02003060     CONDUIT    569.34     0  02:49      2.07    0.13    0.32
  1                    CONDUIT    737.73     0  02:48      3.06    0.26    0.35
  2                    CONDUIT     71.68     0  02:11      4.41    0.17    0.28
  3                    CONDUIT    250.55     0  00:00      8.26    0.40    0.46
  4                    CONDUIT      0.00     0  00:00      0.00    0.00    0.00
  CC-Pump-1            PUMP       200.00     0  05:30              1.00
  CC-Pump-2            PUMP       200.00     0  06:30              1.00
  JK-Pump-1            PUMP       299.97     0  02:00              1.00
  JK-Pump-2            PUMP       300.00     0  00:00              1.00
  XR-Pump-1            PUMP        95.00     0  01:10              1.00
  XR-Pump-2            PUMP        95.00     0  05:40              1.00
  XR-Pump-3            PUMP        94.98     0  02:40              1.00
  XR-Pump-4            PUMP        95.00     0  02:30              1.00
  
  
  ***************************
  Flow Classification Summary
  ***************************
  
  -------------------------------------------------------------------------------------
                      Adjusted    ---------- Fraction of Time in Flow Class ---------- 
                       /Actual         Up    Down  Sub   Sup   Up    Down  Norm  Inlet 
  Conduit               Length    Dry  Dry   Dry   Crit  Crit  Crit  Crit  Ltd   Ctrl  
  -------------------------------------------------------------------------------------
  WS02003066WSF200        1.00   0.08  0.00  0.00  0.00  0.91  0.00  0.00  0.68  0.00
  WS02006287WS02006284    1.00   0.05  0.02  0.00  0.57  0.36  0.00  0.00  0.65  0.00
  WS02006284WS02006280    1.00   0.06  0.00  0.00  0.00  0.00  0.00  0.94  0.00  0.00
  WS02006280WS02006229    1.00   0.06  0.00  0.00  0.00  0.00  0.00  0.94  0.00  0.00
  WS02006229WS02006228    1.00   0.00  0.00  0.00  0.98  0.00  0.00  0.02  0.00  0.00
  WS02006256WS02006235    1.00   0.00  0.00  0.00  1.00  0.00  0.00  0.00  0.00  0.00
  WS02006253WS02006251    1.00   0.04  0.02  0.00  0.94  0.00  0.00  0.00  0.00  0.00
  WS02006252WS02006251    1.00   0.09  0.01  0.00  0.00  0.00  0.90  0.00  0.00  0.00
  WS02006251WS02006249    1.00   0.00  0.00  0.00  1.00  0.00  0.00  0.00  0.46  0.00
  WS02006249WS02006248    1.00   0.00  0.03  0.00  0.69  0.00  0.28  0.00  0.00  0.00
  WS02006248WS02006247    1.00   0.03  0.00  0.00  0.97  0.00  0.00  0.00  0.36  0.00
  WS02006247WS02006245    1.00   0.03  0.00  0.00  0.96  0.00  0.00  0.02  0.00  0.00
  WS02006245WS02006243    1.00   0.02  0.01  0.00  0.89  0.00  0.00  0.09  0.04  0.00
  WS02006243WS02006242    1.00   0.01  0.01  0.00  0.98  0.00  0.00  0.00  0.34  0.00
  WS02006242WS02006240    1.00   0.01  0.00  0.00  0.98  0.00  0.01  0.00  0.00  0.00
  WS02006240WS02006239    1.00   0.00  0.00  0.00  0.92  0.00  0.00  0.08  0.03  0.00
  WS02006239WS02006238    1.00   0.00  0.00  0.00  1.00  0.00  0.00  0.00  0.16  0.00
  WS02006238WS02006235    1.00   0.00  0.00  0.00  1.00  0.00  0.00  0.00  0.00  0.00
  WS02006235WS02006234    1.00   0.00  0.00  0.00  0.94  0.00  0.06  0.00  0.00  0.00
  WS02006234WS02006232    1.00   0.00  0.00  0.00  1.00  0.00  0.00  0.00  0.12  0.00
  WS02006232WS02006231    1.00   0.00  0.00  0.00  0.99  0.00  0.01  0.00  0.00  0.00
  WS02006231WS02006230    1.00   0.00  0.00  0.00  0.27  0.00  0.73  0.00  0.00  0.00
  WS02006230WS02006229    1.00   0.00  0.00  0.00  0.98  0.00  0.00  0.02  0.01  0.00
  WS02006228WS02006109    1.00   0.00  0.00  0.00  0.99  0.00  0.00  0.00  0.00  0.00
  WS02006116WS02004401    1.00   0.03  0.00  0.00  0.97  0.00  0.00  0.00  0.00  0.00
  WS02006115WS02006116    1.00   0.03  0.00  0.00  0.96  0.00  0.00  0.01  0.00  0.00
  WS02006113WS02006111    1.00   0.03  0.00  0.00  0.00  0.97  0.00  0.00  0.18  0.00
  WS02006112WS02006115    1.00   0.03  0.00  0.00  0.97  0.00  0.00  0.00  0.00  0.00
  WS02006111WS02006112    1.00   0.03  0.00  0.00  0.97  0.00  0.00  0.00  0.98  0.00
  WS02006110WS02006113    1.00   0.01  0.01  0.00  0.97  0.00  0.00  0.00  0.00  0.00
  WS02006109WS02006110    1.00   0.00  0.01  0.00  0.98  0.00  0.01  0.00  0.00  0.00
  WS02004411WS02004412    1.00   0.05  0.00  0.00  0.95  0.00  0.00  0.00  0.00  0.00
  WS02004401WS02004402    1.00   0.03  0.00  0.00  0.97  0.00  0.00  0.00  0.00  0.00
  WS02004413WS02003067    1.00   0.05  0.02  0.00  0.00  0.00  0.92  0.00  0.00  0.00
  WS02004412WS02004413    1.00   0.05  0.00  0.00  0.95  0.00  0.00  0.00  0.04  0.00
  WS02004410WS02004411    1.00   0.05  0.00  0.00  0.95  0.00  0.00  0.00  0.04  0.00
  WS02004409WS02004410    1.00   0.05  0.00  0.00  0.95  0.00  0.00  0.00  0.04  0.00
  WS02004407WS02004409    1.00   0.05  0.00  0.00  0.95  0.00  0.00  0.00  0.89  0.00
  WS02004406WS02004407    1.00   0.00  0.05  0.00  0.95  0.00  0.00  0.00  0.00  0.00
  WS02004405WS02004406    1.00   0.00  0.00  0.00  1.00  0.00  0.00  0.00  0.01  0.00
  WS02004404WS02004405    1.00   0.00  0.00  0.00  1.00  0.00  0.00  0.00  0.00  0.00
  WS02004403WS02004404    1.00   0.00  0.04  0.00  0.96  0.00  0.00  0.00  0.01  0.00
  WS02004402WS02004403    1.00   0.03  0.00  0.00  0.97  0.00  0.00  0.00  0.00  0.00
  WS02004139WS02001211    1.00   0.00  0.01  0.00  0.99  0.00  0.00  0.00  0.00  0.00
  WS02004138WS02004139    1.00   0.03  0.05  0.00  0.92  0.00  0.00  0.00  0.98  0.00
  WS02003067WS02003066    1.00   0.08  0.01  0.00  0.92  0.00  0.00  0.00  0.00  0.00
  WS02001213WS02003059    1.00   0.00  0.01  0.00  0.99  0.00  0.00  0.00  0.00  0.00
  WS02001212WS02001213    1.00   0.03  0.00  0.00  0.47  0.00  0.49  0.00  0.00  0.00
  WS02001211WS02001212    1.00   0.00  0.03  0.00  0.97  0.00  0.00  0.00  0.00  0.00
  WS02003072WS02003073    1.00   0.00  0.00  0.00  0.00  0.00  0.00  1.00  0.00  0.00
  WS02003069WS02003072    1.00   0.00  0.00  0.00  0.99  0.01  0.00  0.00  0.78  0.00
  WS02003060WS02003069    1.00   0.00  0.00  0.00  0.97  0.03  0.00  0.00  0.52  0.00
  WS02003059WS02003060    1.00   0.00  0.00  0.00  0.99  0.01  0.00  0.00  0.04  0.00
  HS02004901HS02004770    1.00   0.06  0.00  0.00  0.94  0.00  0.00  0.00  0.00  0.00
  HS02004876HS02004881    1.00   0.03  0.00  0.00  0.90  0.07  0.00  0.00  0.00  0.00
  HS02004870HS02004876    1.00   0.01  0.00  0.00  0.99  0.00  0.00  0.00  0.95  0.00
  HS02004842HS02004848    1.00   0.00  0.06  0.00  0.94  0.00  0.00  0.00  0.58  0.00
  HS02004837HS02004842    1.00   0.00  0.00  0.00  0.99  0.01  0.00  0.00  0.11  0.00
  HS02004830HS02004837    1.00   0.00  0.00  0.00  1.00  0.00  0.00  0.00  0.99  0.00
  HS02004824HS02004830    1.00   0.00  0.00  0.00  1.00  0.00  0.00  0.00  0.00  0.00
  HS02004817HS02004824    1.00   0.00  0.00  0.00  1.00  0.00  0.00  0.00  1.00  0.00
  HS02004770HS02004777    1.00   0.00  0.06  0.00  0.94  0.00  0.00  0.00  0.03  0.00
  HS02004799HS02004480    1.00   0.00  0.03  0.00  0.93  0.00  0.03  0.00  0.00  0.00
  HS02004792HS02004799    1.00   0.00  0.00  0.00  0.98  0.02  0.00  0.00  0.98  0.00
  HS02004788HS02004792    1.00   0.00  0.00  0.00  0.98  0.02  0.00  0.00  0.98  0.00
  HS02004785HS02004788    1.00   0.00  0.00  0.00  1.00  0.00  0.00  0.00  0.00  0.00
  HS02004777HS02004785    1.00   0.00  0.00  0.00  1.00  0.00  0.00  0.00  0.14  0.00
  HS02004480HS02004478    1.00   0.06  0.00  0.00  0.63  0.00  0.00  0.31  0.00  0.00
  HS02004479HS02004480    1.00   0.04  0.00  0.00  0.96  0.00  0.00  0.00  0.12  0.00
  HS02004862HS02004870    1.00   0.00  0.00  0.00  1.00  0.00  0.00  0.00  0.05  0.00
  HS02004848HS02004852    1.00   0.06  0.00  0.00  0.94  0.00  0.00  0.00  0.61  0.00
  HS02004856HS02004862    1.00   0.00  0.07  0.00  0.93  0.00  0.00  0.00  0.80  0.00
  HS02004852HS02004856    1.00   0.06  0.00  0.00  0.94  0.00  0.00  0.00  0.85  0.00
  HS02004802HS02004478    1.00   0.06  0.00  0.00  0.94  0.00  0.00  0.00  0.03  0.00
  HS02004478WS02006287    1.00   0.07  0.00  0.00  0.68  0.25  0.00  0.00  0.66  0.00
  HS02004817HS02004807    1.00   0.00  0.06  0.00  0.94  0.00  0.00  0.00  0.01  0.00
  HS02004807HS02004802    1.00   0.06  0.00  0.00  0.94  0.00  0.00  0.00  0.00  0.00
  YS02001759YS02001757    1.00   0.00  0.00  0.00  1.00  0.00  0.00  0.00  0.16  0.00
  YS02001762YS02001759    1.00   0.00  0.00  0.00  1.00  0.00  0.00  0.00  0.04  0.00
  YS02001765YS02001762    1.00   0.00  0.00  0.00  1.00  0.00  0.00  0.00  0.16  0.00
  YS02001770YS02001767    1.00   0.00  0.00  0.00  1.00  0.00  0.00  0.00  0.00  0.00
  YS02001774YS02001770    1.00   0.00  0.06  0.00  0.94  0.00  0.00  0.00  0.04  0.00
  YS02001779YS02001774    1.00   0.00  0.00  0.00  1.00  0.00  0.00  0.00  0.21  0.00
  YS02001649YS02001757    1.00   0.00  0.00  0.00  1.00  0.00  0.00  0.00  0.17  0.00
  YS02001767YS02001765    1.00   0.00  0.00  0.00  1.00  0.00  0.00  0.00  0.00  0.00
  YS02006561YS02001783    1.00   0.08  0.00  0.00  0.68  0.25  0.00  0.00  0.57  0.00
  YS02001783YS02001784    1.00   0.00  0.08  0.00  0.92  0.00  0.00  0.00  0.01  0.00
  YS02001784YS02001785    1.00   0.00  0.00  0.00  1.00  0.00  0.00  0.00  0.20  0.00
  YS02001788YS02001790    1.00   0.00  0.00  0.00  0.86  0.14  0.00  0.00  0.30  0.00
  YS02001790YS02001791    1.00   0.00  0.00  0.00  0.81  0.19  0.00  0.00  0.11  0.00
  YS02001791YS02001793    1.00   0.00  0.00  0.00  0.81  0.19  0.00  0.00  0.03  0.00
  YS02001910YS02001907    1.00   0.00  0.00  0.00  0.97  0.00  0.00  0.03  0.13  0.00
  YS02001786YS02001788    1.00   0.00  0.00  0.00  0.81  0.19  0.00  0.00  0.00  0.00
  YS02001915YS02001910    1.00   0.00  0.00  0.00  0.98  0.02  0.00  0.00  0.18  0.00
  YS02001918YS02001915    1.00   0.00  0.01  0.00  0.97  0.02  0.00  0.00  0.58  0.00
  YS02001923YS02001920    1.00   0.00  0.00  0.00  1.00  0.00  0.00  0.00  0.85  0.00
  YS02001926YS02001923    1.00   0.00  0.05  0.00  0.11  0.00  0.84  0.00  0.00  0.00
  YS02001929YS02001926    1.00   0.00  0.06  0.00  0.94  0.00  0.00  0.00  0.78  0.00
  YS02001920YS02001918    1.00   0.00  0.01  0.00  0.99  0.00  0.00  0.00  0.00  0.00
  YS02001629YS02163301    1.00   0.07  0.00  0.00  0.93  0.00  0.00  0.00  0.00  0.00
  YS02001619YS02001622    1.00   0.06  0.00  0.00  0.94  0.00  0.00  0.00  0.00  0.00
  YS02001622YS02001625    1.00   0.06  0.00  0.00  0.94  0.00  0.00  0.00  0.07  0.00
  YS02001625YS02001629    1.00   0.06  0.02  0.00  0.91  0.00  0.02  0.00  0.00  0.00
  YS02163301YS02001633    1.00   0.00  0.07  0.00  0.93  0.00  0.00  0.00  0.00  0.00
  YS02163601YS02164001    1.00   0.00  0.05  0.00  0.95  0.00  0.00  0.00  0.00  0.00
  YS02164001YS02001641    1.00   0.01  0.04  0.00  0.95  0.00  0.00  0.00  0.06  0.00
  YS02001641YS02001644    1.00   0.00  0.01  0.00  0.99  0.00  0.00  0.00  0.00  0.00
  YS02001647YS02001649    1.00   0.00  0.07  0.00  0.93  0.00  0.00  0.00  0.01  0.00
  YS02006553YS02006556    1.00   0.02  0.00  0.00  0.98  0.00  0.00  0.00  0.03  0.00
  YS02006556YS02006558    1.00   0.00  0.00  0.00  1.00  0.00  0.00  0.00  0.00  0.00
  YSB6556YSB1171          1.00   0.04  0.02  0.00  0.94  0.00  0.00  0.00  0.00  0.00
  YS02001907YS02006553    1.00   0.00  0.03  0.00  0.97  0.00  0.00  0.00  0.00  0.00
  YS02006558YS02006561    1.00   0.08  0.00  0.00  0.16  0.76  0.00  0.00  0.49  0.00
  YS02001633YS02163601    1.00   0.00  0.01  0.00  0.99  0.00  0.00  0.00  0.16  0.00
  YS02001644YS02001647    1.00   0.00  0.07  0.00  0.93  0.00  0.00  0.00  0.00  0.00
  YS02001745YS02001748    1.00   0.00  0.00  0.00  0.86  0.01  0.00  0.13  0.04  0.00
  YS02001748YS02001751    1.00   0.00  0.00  0.00  0.97  0.03  0.00  0.00  0.15  0.00
  YS02001751YS02001754    1.00   0.00  0.00  0.00  0.92  0.00  0.00  0.08  0.02  0.00
  YS02001754YS02001757    1.00   0.00  0.00  0.00  0.99  0.01  0.00  0.00  0.20  0.00
  YS02001882YS02001884    1.00   0.06  0.00  0.00  0.93  0.00  0.00  0.00  0.00  0.00
  YS02001884YS02001887    1.00   0.04  0.01  0.00  0.95  0.00  0.00  0.00  0.00  0.00
  YS02001890YS02001895    1.00   0.00  0.07  0.00  0.93  0.00  0.00  0.00  0.00  0.00
  YS02001895YS02001898    1.00   0.07  0.00  0.00  0.92  0.00  0.01  0.00  0.00  0.00
  YS02001898YS02001901    1.00   0.07  0.00  0.00  0.93  0.00  0.00  0.00  0.02  0.00
  YS02001901YS02001904    1.00   0.07  0.00  0.00  0.93  0.00  0.00  0.00  0.00  0.00
  YS02001904YS02001907    1.00   0.00  0.07  0.00  0.93  0.00  0.00  0.00  0.00  0.00
  YS02001887YS02001890    1.00   0.00  0.00  0.00  0.96  0.00  0.03  0.00  0.00  0.00
  YS02001652YS02001649    1.00   0.00  0.00  0.00  1.00  0.00  0.00  0.00  0.18  0.00
  YS02001655YS02001652    1.00   0.00  0.00  0.00  0.92  0.00  0.00  0.08  0.02  0.00
  YS02001658YS02001655    1.00   0.00  0.06  0.00  0.91  0.03  0.00  0.00  0.11  0.00
  YS02001661YS02001658    1.00   0.06  0.00  0.00  0.86  0.08  0.00  0.00  0.06  0.00
  YS02001664YS02001661    1.00   0.06  0.00  0.00  0.84  0.10  0.00  0.00  0.22  0.00
  YSB1154YSB6556          1.00   0.06  0.00  0.00  0.94  0.00  0.00  0.00  0.02  0.00
  YSB1174YSB1171          1.00   0.04  0.01  0.00  0.95  0.00  0.00  0.00  0.00  0.00
  YSB1171HS02004479       1.00   0.04  0.00  0.00  0.96  0.00  0.00  0.00  0.11  0.00
  HS02004881HS02006253    1.00   0.04  0.00  0.00  0.34  0.06  0.00  0.56  0.25  0.00
  YS02001793JiankangQianchi    1.00   0.00  0.00  0.00  0.97  0.02  0.00  0.00  0.27  0.00
  YS02001757CaochengTiaoxuchi    1.00   0.00  0.09  0.00  0.90  0.00  0.00  0.00  0.00  0.00
  WSF200WS02003060        1.00   0.00  0.09  0.00  0.20  0.71  0.00  0.00  0.32  0.00
  1                       1.00   0.00  0.00  0.00  0.00  1.00  0.00  0.00  0.27  0.00
  2                       1.00   0.94  0.00  0.00  0.00  0.06  0.00  0.00  0.02  0.00
  3                       1.00   0.62  0.00  0.00  0.00  0.38  0.00  0.00  0.45  0.00
  4                       1.00   1.00  0.00  0.00  0.00  0.00  0.00  0.00  0.00  0.00
  
  
  *************************
  Conduit Surcharge Summary
  *************************
  
  ----------------------------------------------------------------------------
                                                           Hours        Hours 
                         --------- Hours Full --------   Above Full   Capacity
  Conduit                Both Ends  Upstream  Dnstream   Normal Flow   Limited
  ----------------------------------------------------------------------------
  WS02006229WS02006228        1.32      1.33      1.32      1.52         1.32
  WS02006256WS02006235        4.63      4.63      6.61      2.26         0.01
  WS02006252WS02006251        0.09      0.09      0.26      0.21         0.01
  WS02006251WS02006249        0.01      0.01      0.01      0.15         0.01
  WS02006249WS02006248        0.01      0.01      0.01      1.26         0.01
  WS02006247WS02006245        0.01      0.01      0.01      2.22         0.01
  WS02006245WS02006243        0.01      0.01      0.01      0.05         0.01
  WS02006243WS02006242        0.01      0.01      0.07      0.01         0.01
  WS02006242WS02006240        0.01      0.01      0.17      0.33         0.01
  WS02006240WS02006239        0.01      0.01      0.01      0.01         0.01
  WS02006239WS02006238        0.14      0.14      0.15      0.01         0.01
  WS02006238WS02006235        0.13      0.13      0.27      0.01         0.01
  WS02006235WS02006234        0.01      0.01      0.09      4.42         0.01
  WS02006234WS02006232        0.04      0.04      0.54      0.01         0.01
  WS02006232WS02006231        0.01      0.01      0.54      0.01         0.01
  WS02006231WS02006230        0.01      0.01      0.01      4.89         0.01
  WS02006230WS02006229        1.38      1.39      1.38      5.56         1.38
  WS02006228WS02006109        1.33      1.35      1.33      2.55         1.33
  WS02006112WS02006115        0.01      0.01      0.78      0.01         0.01
  WS02006111WS02006112        0.01      0.01      1.46      0.01         0.01
  WS02006110WS02006113        0.01      0.01      1.34      0.01         0.01
  WS02006109WS02006110        0.39      0.39      1.35      0.41         0.01
  WS02004405WS02004406        0.01      0.01      0.01      0.60         0.01
  WS02004404WS02004405        0.01      0.01      0.01      5.23         0.01
  WS02003072WS02003073        0.01      0.01      0.01      1.27         0.01
  HS02004480HS02004478        0.01      0.01      0.01      0.25         0.01
  YS02001759YS02001757        5.66      5.66      5.74      0.01         0.01
  YS02001762YS02001759        5.64      5.64      5.66      0.01         0.01
  YS02001765YS02001762        5.61      5.61      5.64      0.01         0.01
  YS02001770YS02001767        5.58      5.58      5.58      0.28         0.73
  YS02001774YS02001770        5.56      5.56      5.63      0.01         0.01
  YS02001779YS02001774        5.40      5.40      5.63      0.01         0.01
  YS02001649YS02001757        5.64      5.64      5.74      0.01         0.01
  YS02001767YS02001765        5.58      5.58      5.61      0.01         0.01
  YS02006561YS02001783        0.67      0.67      1.47      0.01         0.01
  YS02001783YS02001784        1.47      1.47      1.54      1.05         1.04
  YS02001784YS02001785        1.49      1.54      1.49      2.06         1.49
  YS02001788YS02001790        1.47      1.47      4.44      0.01         0.01
  YS02001790YS02001791        4.44      4.44      4.77      0.49         0.50
  YS02001791YS02001793        4.77      4.77      5.15      0.01         0.01
  YS02001910YS02001907        1.01      1.01      1.50      0.01         0.01
  YS02001786YS02001788        1.46      1.49      1.47      1.67         1.46
  YS02001915YS02001910        0.79      0.79      1.01      0.01         0.01
  YS02001918YS02001915        0.53      0.53      0.79      0.01         0.01
  YS02001923YS02001920        0.33      0.33      0.57      0.01         0.01
  YS02001920YS02001918        0.53      0.53      0.57      0.01         0.01
  YS02001629YS02163301        5.57      5.57      5.58      0.01         0.01
  YS02001619YS02001622        5.23      5.23      5.26      0.01         0.01
  YS02001622YS02001625        5.26      5.26      5.43      0.01         0.01
  YS02001625YS02001629        5.24      5.24      5.43      0.01         0.01
  YS02163301YS02001633        5.58      5.58      5.61      0.01         0.01
  YS02163601YS02164001        5.61      5.61      5.64      0.01         0.01
  YS02164001YS02001641        5.61      5.61      5.62      0.01         0.02
  YS02001641YS02001644        5.62      5.62      5.62      1.21         1.29
  YS02001647YS02001649        5.43      5.43      5.64      0.01         0.01
  YS02006553YS02006556        1.24      1.24      1.60      0.01         0.01
  YS02006556YS02006558        1.37      1.37      1.67      0.01         0.01
  YS02001907YS02006553        2.11      2.11      2.31      0.01         0.01
  YS02006558YS02006561        0.90      1.20      0.90      1.95         0.90
  YS02001633YS02163601        5.60      5.60      5.64      0.01         0.01
  YS02001644YS02001647        5.43      5.43      5.62      0.01         0.01
  YS02001745YS02001748        0.01      0.01      5.07      0.01         0.01
  YS02001748YS02001751        5.11      5.11      5.24      0.01         0.01
  YS02001751YS02001754        5.24      5.24      5.41      0.01         0.01
  YS02001754YS02001757        5.43      5.43      5.74      0.01         0.01
  YS02001882YS02001884        0.80      0.80      0.84      0.01         0.01
  YS02001884YS02001887        0.90      0.90      0.93      0.01         0.01
  YS02001890YS02001895        0.78      0.78      1.04      0.01         0.01
  YS02001895YS02001898        0.76      0.76      0.78      0.01         0.01
  YS02001898YS02001901        0.79      0.79      0.89      0.01         0.01
  YS02001901YS02001904        0.87      0.87      0.89      0.01         0.01
  YS02001904YS02001907        0.87      0.87      1.62      0.01         0.01
  YS02001887YS02001890        0.96      0.96      0.99      0.01         0.01
  YS02001652YS02001649        5.44      5.44      5.64      0.01         0.01
  YS02001655YS02001652        5.24      5.24      5.43      0.01         0.01
  YS02001658YS02001655        5.09      5.09      5.24      0.01         0.01
  YS02001661YS02001658        0.17      0.17      5.09      0.01         0.01
  YS02001664YS02001661        0.01      0.01      1.02      0.01         0.01
  YS02001793JiankangQianchi        5.11      5.11      5.80      0.01         0.01
  YS02001757CaochengTiaoxuchi        4.93      4.93      5.74      0.01         0.01
  
  
  ***************
  Pumping Summary
  ***************
  
  ---------------------------------------------------------------------------------------------------------
                                                  Min       Avg       Max     Total     Power    % Time Off
                        Percent   Number of      Flow      Flow      Flow    Volume     Usage    Pump Curve
  Pump                 Utilized   Start-Ups       LPS       LPS       LPS  10^6 ltr     Kw-hr    Low   High
  ---------------------------------------------------------------------------------------------------------
  CC-Pump-1               29.01           7      0.00    110.57    200.00     0.853      1.31    0.0   19.3
  CC-Pump-2               35.37           8      0.00    104.64    200.00     0.973      1.41    0.0   21.4
  JK-Pump-1               12.77           3      0.00    158.96    299.97     0.540      4.87    0.0    0.0
  JK-Pump-2               29.80           5      0.00    195.03    300.00     1.439      8.51    0.0    0.0
  XR-Pump-1               53.17          10      0.00     53.56     95.00     0.798      3.67    0.0    0.0
  XR-Pump-2                4.26           1      0.00     50.59     95.00     0.057      0.25    0.0    0.0
  XR-Pump-3               17.02           4      0.00     46.41     94.98     0.228      1.02    0.0    0.0
  XR-Pump-4               25.53           5      0.00     57.20     95.00     0.399      1.78    0.0    0.0
  

  Analysis begun on:  Thu Jan  6 19:05:11 2022
  Analysis ended on:  Thu Jan  6 19:05:13 2022
  Total elapsed time: 00:00:02