
  EPA STORM WATER MANAGEMENT MODEL - VERSION 5.1 (Build 5.3.0.dev0)
  --------------------------------------------------------------

  WARNING 04: minimum elevation drop used for Conduit WS02004404WS02004405
  WARNING 03: negative offset ignored for Link YS02001904YS02001907
  
  *********************************************************
  NOTE: The summary statistics displayed in this report are
  based on results found at every computational time step,  
  not just on results from each reporting time step.
  *********************************************************
  
  ****************
  Analysis Options
  ****************
  Flow Units ............... LPS
  Process Models:
    Rainfall/Runoff ........ YES
    RDII ................... NO
    Snowmelt ............... NO
    Groundwater ............ NO
    Flow Routing ........... YES
    Ponding Allowed ........ NO
    Water Quality .......... NO
  Infiltration Method ...... HORTON
  Flow Routing Method ...... DYNWAVE
  Surcharge Method ......... EXTRAN
  Starting Date ............ 08/28/2015 08:00:00
  Ending Date .............. 08/28/2015 15:50:00
  Antecedent Dry Days ...... 8.0
  Report Time Step ......... 00:01:00
  Wet Time Step ............ 00:01:00
  Dry Time Step ............ 00:01:00
  Routing Time Step ........ 5.00 sec
  Variable Time Step ....... YES
  Maximum Trials ........... 8
  Number of Threads ........ 4
  Head Tolerance ........... 0.001500 m
  
  
  **************************        Volume         Depth
  Runoff Quantity Continuity     hectare-m            mm
  **************************     ---------       -------
  Total Precipitation ......         6.144        13.452
  Evaporation Loss .........         0.000         0.000
  Infiltration Loss ........         1.572         3.442
  Surface Runoff ...........         3.480         7.619
  Final Storage ............         1.093         2.393
  Continuity Error (%) .....        -0.016
  
  
  **************************        Volume        Volume
  Flow Routing Continuity        hectare-m      10^6 ltr
  **************************     ---------     ---------
  Dry Weather Inflow .......         0.616         6.165
  Wet Weather Inflow .......         3.479        34.790
  Groundwater Inflow .......         0.000         0.000
  RDII Inflow ..............         0.000         0.000
  External Inflow ..........         0.102         1.024
  External Outflow .........         0.907         9.066
  Flooding Loss ............         2.700        27.005
  Evaporation Loss .........         0.000         0.000
  Exfiltration Loss ........         0.000         0.000
  Initial Stored Volume ....         0.076         0.761
  Final Stored Volume ......         0.669         6.693
  Continuity Error (%) .....        -0.060
  
  
  *************************
  Highest Continuity Errors
  *************************
  Node HS02004842 (15.27%)
  Node YS02001884 (12.75%)
  Node YSB1171 (2.78%)
  Node HS02004817 (2.78%)
  Node YS02001767 (2.15%)
  
  
  ***************************
  Time-Step Critical Elements
  ***************************
  Link WS02006252WS02006251 (57.11%)
  Link 3 (20.50%)
  Link WS02006280WS02006229 (5.96%)
  Link WS02006238WS02006235 (3.84%)
  Link YS02006556YS02006558 (2.90%)
  
  
  ********************************
  Highest Flow Instability Indexes
  ********************************
  Link WS02006113WS02006111 (42)
  Link YS02163601YS02164001 (34)
  Link YS02001629YS02163301 (33)
  Link YS02163301YS02001633 (33)
  Link YS02001619YS02001622 (31)
  
  
  *************************
  Routing Time Step Summary
  *************************
  Minimum Time Step           :     0.04 sec
  Average Time Step           :     1.14 sec
  Maximum Time Step           :     5.00 sec
  Percent in Steady State     :    -0.00
  Average Iterations per Step :     4.10
  Percent Not Converging      :    19.99
  
  
  ***************************
  Subcatchment Runoff Summary
  ***************************
  
  ------------------------------------------------------------------------------------------------------------------------------
                            Total      Total      Total      Total     Imperv       Perv      Total       Total     Peak  Runoff
                           Precip      Runon       Evap      Infil     Runoff     Runoff     Runoff      Runoff   Runoff   Coeff
  Subcatchment                 mm         mm         mm         mm         mm         mm         mm    10^6 ltr      LPS
  ------------------------------------------------------------------------------------------------------------------------------
  sub0                      13.45       0.00       0.00       0.89      11.25       0.05      11.30        0.01     3.67   0.840
  sub1                      13.45       0.00       0.00       1.45      10.71       0.03      10.74        0.07    24.31   0.799
  sub2                      13.45       0.00       0.00       4.95       7.56       0.02       7.58        0.07    22.93   0.564
  sub3                      13.45       0.00       0.00       4.96       7.52       0.02       7.54        0.17    51.30   0.560
  sub4                      13.45       0.00       0.00       1.46      10.54       0.02      10.56        0.22    61.94   0.785
  sub5                      13.45       0.00       0.00       0.91      11.19       0.03      11.22        0.13    43.21   0.834
  sub7                      13.45       0.00       0.00       1.17      10.98       0.04      11.03        0.04    13.69   0.820
  sub8                      13.45       0.00       0.00       1.17      10.97       0.04      11.01        0.07    25.15   0.819
  sub9                      13.45       0.00       0.00       1.17      10.97       0.04      11.01        0.05    18.81   0.818
  sub10                     13.45       0.00       0.00       1.04      11.08       0.03      11.11        0.12    42.29   0.826
  sub11                     13.45       0.00       0.00       1.04      11.10       0.04      11.14        0.13    46.68   0.828
  sub12                     13.45       0.00       0.00       1.69      10.51       0.06      10.58        0.09    35.94   0.786
  sub14                     13.45       0.00       0.00       1.17      10.97       0.04      11.01        0.10    37.02   0.818
  sub15                     13.45       0.00       0.00       4.00       8.43       0.04       8.47        0.15    51.03   0.630
  sub16                     13.45       0.00       0.00       4.38       8.09       0.06       8.15        0.09    32.58   0.606
  sub17                     13.45       0.00       0.00       4.25       8.21       0.06       8.27        0.07    26.73   0.615
  sub22                     13.45       0.00       0.00       5.74       6.88       0.04       6.92        0.44   159.06   0.514
  sub23                     13.45       0.00       0.00       4.93       7.60       0.05       7.65        0.36   133.95   0.569
  sub60                     13.45       0.00       0.00       1.61       8.73       0.00       8.74        2.65   387.96   0.649
  sub61                     13.45       0.00       0.00       2.28       8.88       0.00       8.88        2.74   483.52   0.660
  sub62                     13.45       0.00       0.00       1.07       9.65       0.00       9.66        2.97   496.42   0.718
  sub63                     13.45       0.00       0.00       3.90       7.77       0.00       7.77        2.35   446.68   0.578
  sub64                     13.45       0.00       0.00       2.01       8.38       0.00       8.38        2.55   368.35   0.623
  sub65                     13.45       0.00       0.00       1.75       8.52       0.00       8.52        2.62   373.60   0.634
  sub66                     13.45       0.00       0.00       3.90       7.19       0.00       7.19        2.21   337.96   0.535
  sub67                     13.45       0.00       0.00       1.07      10.19       0.01      10.19        3.15   622.58   0.758
  sub68                     13.45       0.00       0.00       1.88       9.34       0.01       9.34        2.87   531.38   0.694
  sub69                     13.45       0.00       0.00       2.01       9.68       0.01       9.69        2.26   503.32   0.720
  sub70                     13.45       9.89       0.00       7.67      12.93       0.26      13.20        3.02   423.72   0.565
  sub71                     13.45       0.00       0.00       1.07       9.40       0.00       9.40        2.22   347.35   0.699
  sub72                     13.45       0.00       0.00       0.94       7.49       0.00       7.50        1.53   163.23   0.557
  sub73                     13.45      12.84       0.00       8.67      14.26       0.27      14.53        3.41   375.92   0.552
  sub74                     13.45       0.00       0.00      10.09       2.88       0.00       2.89        1.15   273.25   0.215
  
  
  ******************
  Node Depth Summary
  ******************
  
  ---------------------------------------------------------------------------------
                                 Average  Maximum  Maximum  Time of Max    Reported
                                   Depth    Depth      HGL   Occurrence   Max Depth
  Node                 Type       Meters   Meters   Meters  days hr:min      Meters
  ---------------------------------------------------------------------------------
  WS02001211           JUNCTION     0.49     0.64     5.48     0  03:01        0.64
  WS02001212           JUNCTION     0.24     0.38     5.45     0  03:02        0.38
  WS02001213           JUNCTION     0.48     0.66     5.42     0  03:04        0.66
  WS02003069           JUNCTION     0.32     0.54     5.13     0  03:07        0.54
  WS02003072           JUNCTION     0.39     0.60     4.98     0  03:08        0.60
  WS02003073           JUNCTION     0.23     0.37     4.43     0  03:09        0.37
  WS02003060           JUNCTION     0.29     0.48     5.41     0  03:07        0.48
  WS02003066           JUNCTION     0.20     0.33     5.88     0  03:08        0.33
  WS02003059           JUNCTION     0.55     0.73     5.42     0  03:06        0.73
  WS02003067           JUNCTION     0.51     0.75     6.07     0  03:08        0.75
  WS02004401           JUNCTION     0.60     0.99     6.99     0  03:05        0.99
  WS02004402           JUNCTION     0.63     1.01     6.97     0  03:05        1.01
  WS02004403           JUNCTION     0.65     1.01     6.94     0  03:05        1.01
  WS02004404           JUNCTION     0.73     1.07     6.92     0  03:05        1.07
  WS02004406           JUNCTION     0.73     1.04     6.87     0  03:06        1.04
  WS02004409           JUNCTION     0.41     0.76     6.53     0  03:07        0.76
  WS02004410           JUNCTION     0.43     0.77     6.49     0  03:07        0.77
  WS02004411           JUNCTION     0.45     0.77     6.45     0  03:07        0.77
  WS02004412           JUNCTION     0.47     0.77     6.41     0  03:07        0.77
  WS02004413           JUNCTION     0.63     0.92     6.39     0  03:08        0.92
  WS02004405           JUNCTION     0.72     1.05     6.90     0  03:06        1.05
  WS02006109           JUNCTION     0.68     1.12     7.74     0  03:03        1.10
  WS02006110           JUNCTION     0.68     1.02     7.61     0  03:03        1.02
  WS02006111           JUNCTION     0.19     0.38     7.08     0  03:05        0.37
  WS02006112           JUNCTION     0.76     1.21     7.10     0  03:05        1.20
  WS02006113           JUNCTION     0.29     0.52     7.41     0  03:03        0.52
  WS02006115           JUNCTION     0.49     0.91     7.05     0  03:05        0.91
  WS02006116           JUNCTION     0.57     0.98     7.02     0  03:05        0.98
  WS02006230           JUNCTION     0.62     1.16     7.91     0  03:02        1.16
  WS02006231           JUNCTION     0.39     0.79     7.92     0  03:04        0.79
  WS02006232           JUNCTION     0.51     0.89     7.93     0  03:03        0.88
  WS02006234           JUNCTION     0.41     0.77     7.93     0  03:04        0.76
  WS02006235           JUNCTION     0.44     0.77     7.94     0  02:32        0.77
  WS02006238           JUNCTION     0.46     0.80     7.94     0  02:32        0.79
  WS02006240           JUNCTION     0.36     0.68     7.98     0  02:32        0.68
  WS02006242           JUNCTION     0.42     0.73     8.00     0  02:33        0.73
  WS02006243           JUNCTION     0.31     0.60     8.02     0  02:33        0.60
  WS02006245           JUNCTION     0.30     0.55     8.04     0  07:31        0.55
  WS02006247           JUNCTION     0.32     0.58     8.08     0  07:31        0.58
  WS02006248           JUNCTION     0.27     0.53     8.12     0  07:31        0.53
  WS02006249           JUNCTION     0.31     0.57     8.17     0  07:30        0.57
  WS02006239           JUNCTION     0.42     0.75     7.96     0  02:32        0.75
  WS02006251           JUNCTION     0.29     0.60     8.27     0  03:30        0.60
  WS02006252           JUNCTION     0.24     0.59     8.83     0  03:30        0.58
  WS02006253           JUNCTION     0.32     0.63     8.27     0  03:30        0.62
  WS02006256           JUNCTION     0.80     1.21     8.14     0  02:40        1.21
  WS02004138           JUNCTION     0.08     0.14     7.39     0  00:00        0.14
  WS02004407           JUNCTION     0.19     0.33     6.65     0  03:06        0.33
  WS02006228           JUNCTION     0.67     1.19     7.84     0  03:02        1.19
  WS02006229           JUNCTION     0.64     1.21     7.90     0  03:02        1.20
  WS02006280           JUNCTION     0.07     0.24     8.52     0  03:02        0.24
  WS02006284           JUNCTION     0.38     0.63     9.02     0  03:02        0.62
  WS02006287           JUNCTION     0.11     0.37     9.32     0  03:02        0.37
  WSF200               JUNCTION     0.18     0.34     5.58     0  03:08        0.34
  HS02004901           JUNCTION     0.13     0.35    10.17     0  03:01        0.35
  HS02004881           JUNCTION     0.01     0.05     9.08     0  03:01        0.05
  HS02004876           JUNCTION     0.05     0.15     9.18     0  03:01        0.15
  HS02004870           JUNCTION     0.02     0.09     9.37     0  03:01        0.09
  HS02004862           JUNCTION     0.02     0.10     9.49     0  03:01        0.10
  HS02004856           JUNCTION     0.08     0.15     9.57     0  03:01        0.15
  HS02004852           JUNCTION     0.01     0.07     9.58     0  03:02        0.07
  HS02004848           JUNCTION     0.01     0.06     9.67     0  03:01        0.06
  HS02004842           JUNCTION     0.34     0.40     9.67     0  03:01        0.40
  HS02004837           JUNCTION     0.03     0.09     9.67     0  03:01        0.09
  HS02004830           JUNCTION     0.04     0.10     9.57     0  03:01        0.10
  HS02004824           JUNCTION     0.03     0.11     9.51     0  03:02        0.11
  HS02004817           JUNCTION     0.45     0.67     9.52     0  03:02        0.67
  HS02004807           JUNCTION     0.13     0.34     9.51     0  03:02        0.34
  HS02004802           JUNCTION     0.17     0.38     9.50     0  03:02        0.38
  HS02004799           JUNCTION     0.13     0.43     9.65     0  03:01        0.43
  HS02004792           JUNCTION     0.04     0.20     9.72     0  03:01        0.19
  HS02004788           JUNCTION     0.03     0.14    10.04     0  03:02        0.14
  HS02004785           JUNCTION     0.05     0.23    10.13     0  03:02        0.23
  HS02004777           JUNCTION     0.15     0.37    10.17     0  03:01        0.37
  HS02004770           JUNCTION     0.12     0.34    10.17     0  03:01        0.34
  HS02004480           JUNCTION     0.09     0.35     9.59     0  03:01        0.35
  HS02004479           JUNCTION     0.13     0.39     9.60     0  03:01        0.39
  HS02004478           JUNCTION     0.07     0.26     9.48     0  03:01        0.26
  YS02001745           JUNCTION     0.68     0.91     8.43     0  03:22        0.91
  YS02001748           JUNCTION     1.06     1.53     8.61     0  02:46        1.35
  YS02001751           JUNCTION     1.24     1.91     8.79     0  02:40        1.55
  YS02001754           JUNCTION     1.48     1.91     8.51     0  02:40        1.82
  YS02001762           JUNCTION     1.68     2.04     8.44     0  03:27        2.02
  YS02001765           JUNCTION     1.63     1.98     8.43     0  03:20        1.98
  YS02001767           JUNCTION     1.60     1.95     8.43     0  03:27        1.93
  YS02001770           JUNCTION     1.59     1.92     8.41     0  03:17        1.91
  YS02001774           JUNCTION     1.66     1.98     8.41     0  03:27        1.97
  YS02001779           JUNCTION     1.41     1.68     8.37     0  02:42        1.68
  YS02001882           JUNCTION     0.57     1.63     8.35     0  02:59        1.62
  YS02001884           JUNCTION     0.66     1.73     8.35     0  03:01        1.72
  YS02001759           JUNCTION     1.71     2.08     8.44     0  03:27        2.07
  YS02001887           JUNCTION     0.74     1.81     8.35     0  03:00        1.80
  YS02001890           JUNCTION     0.77     1.81     8.32     0  02:51        1.81
  YS02001898           JUNCTION     0.54     1.56     8.30     0  02:57        1.56
  YS02001901           JUNCTION     0.65     1.68     8.29     0  03:02        1.67
  YS02001904           JUNCTION     0.63     1.64     8.27     0  03:00        1.63
  YS02001907           JUNCTION     0.96     1.96     8.25     0  02:50        1.96
  YS02001910           JUNCTION     0.75     1.79     8.30     0  02:52        1.77
  YS02001915           JUNCTION     0.55     1.61     8.33     0  02:52        1.60
  YS02001918           JUNCTION     0.30     1.30     8.36     0  02:52        1.29
  YS02001619           JUNCTION     1.20     1.61     8.54     0  02:41        1.48
  YS02001629           JUNCTION     1.55     1.85     8.40     0  02:41        1.85
  YS02001641           JUNCTION     1.64     1.96     8.40     0  02:44        1.93
  YS02001644           JUNCTION     1.64     1.92     8.35     0  02:42        1.92
  YS02001652           JUNCTION     1.49     2.10     8.69     0  02:42        1.94
  YS02001655           JUNCTION     1.26     2.20     9.05     0  02:42        1.78
  YS02001920           JUNCTION     0.40     1.38     8.39     0  02:52        1.36
  YS02001923           JUNCTION     0.24     1.14     8.40     0  02:52        1.14
  YS02001926           JUNCTION     0.28     0.98     8.43     0  02:52        0.98
  YS02001929           JUNCTION     0.16     0.76     8.45     0  02:52        0.69
  YS02001658           JUNCTION     1.00     2.30     9.44     0  02:42        1.62
  YS02001661           JUNCTION     0.78     1.97     9.37     0  03:39        1.60
  YS02001664           JUNCTION     0.35     0.57     8.50     0  02:52        0.56
  YS02001622           JUNCTION     1.22     1.62     8.52     0  02:42        1.50
  YS02001633           JUNCTION     1.64     2.02     8.47     0  02:44        1.94
  YS02001649           JUNCTION     1.69     2.05     8.44     0  02:42        2.05
  YS02001757           JUNCTION     1.81     2.18     8.44     0  03:27        2.16
  YS02001895           JUNCTION     0.53     1.57     8.31     0  03:03        1.56
  YS02001625           JUNCTION     1.50     1.78     8.38     0  02:40        1.78
  YS02163301           JUNCTION     1.57     1.94     8.46     0  02:44        1.87
  YS02163601           JUNCTION     1.69     2.05     8.44     0  02:44        1.98
  YS02164001           JUNCTION     1.62     1.97     8.43     0  02:44        1.91
  YS02001647           JUNCTION     1.48     1.81     8.42     0  02:52        1.79
  YSB1154              JUNCTION     0.26     0.54     9.60     0  03:01        0.54
  YSB6556              JUNCTION     0.16     0.43     9.60     0  03:02        0.43
  YSB1174              JUNCTION     0.22     0.49     9.60     0  03:01        0.49
  YSB1171              JUNCTION     0.42     0.69     9.60     0  03:01        0.69
  YS02006553           JUNCTION     0.96     1.97     8.25     0  02:59        1.96
  YS02006561           JUNCTION     0.34     1.09     7.75     0  02:50        1.09
  YS02006556           JUNCTION     0.93     1.93     8.24     0  02:59        1.93
  YS02006558           JUNCTION     0.97     1.98     8.24     0  03:00        1.96
  YS02001783           JUNCTION     0.66     1.48     7.62     0  03:01        1.48
  YS02001784           JUNCTION     0.69     1.43     7.49     0  02:51        1.42
  YS02001786           JUNCTION     0.67     1.27     7.30     0  02:51        1.27
  YS02001788           JUNCTION     0.66     1.26     7.24     0  02:29        1.13
  YS02001790           JUNCTION     0.90     1.96     7.60     0  02:27        1.30
  YS02001791           JUNCTION     0.99     2.17     7.64     0  02:27        1.27
  YS02001793           JUNCTION     1.51     3.60     8.43     0  02:24        1.80
  WS02004139           JUNCTION     0.42     0.57     5.48     0  03:00        0.57
  WSC                  OUTFALL      0.22     0.37     1.04     0  03:09        0.37
  3                    OUTFALL      0.03     0.20     6.20     0  02:40        0.20
  4                    OUTFALL      0.00     0.07     7.07     0  07:31        0.07
  5                    OUTFALL      0.00     0.00     5.00     0  00:00        0.00
  JK-storage           STORAGE      5.21     5.80     6.60     0  02:28        5.80
  CC-storage           STORAGE      1.05     1.42     8.42     0  03:21        1.42
  XR-storage           STORAGE      7.66     7.72     5.72     0  00:51        7.72
  
  
  *******************
  Node Inflow Summary
  *******************
  
  -------------------------------------------------------------------------------------------------
                                  Maximum  Maximum                  Lateral       Total        Flow
                                  Lateral    Total  Time of Max      Inflow      Inflow     Balance
                                   Inflow   Inflow   Occurrence      Volume      Volume       Error
  Node                 Type           LPS      LPS  days hr:min    10^6 ltr    10^6 ltr     Percent
  -------------------------------------------------------------------------------------------------
  WS02001211           JUNCTION      7.35   197.66     0  06:00       0.207        2.35       1.321
  WS02001212           JUNCTION      0.00   197.66     0  06:00           0        2.32       0.541
  WS02001213           JUNCTION      0.00   197.85     0  07:50           0        2.31       1.025
  WS02003069           JUNCTION      0.32   832.74     0  03:07     0.00902        8.26       0.332
  WS02003072           JUNCTION      0.00   832.59     0  03:08           0        8.23       0.416
  WS02003073           JUNCTION      1.82   834.42     0  03:08      0.0514        8.25       0.464
  WS02003060           JUNCTION     16.53   832.67     0  03:07       0.466        8.29       0.315
  WS02003066           JUNCTION      0.00   673.51     0  03:08           0        5.58       0.079
  WS02003059           JUNCTION      0.00   199.01     0  07:50           0         2.3       1.565
  WS02003067           JUNCTION      0.00   673.15     0  03:08           0        5.58       0.166
  WS02004401           JUNCTION      0.00   678.38     0  03:05           0        5.81       0.351
  WS02004402           JUNCTION      0.00   676.66     0  03:06           0        5.79       0.334
  WS02004403           JUNCTION      0.00   676.77     0  03:06           0        5.77       0.306
  WS02004404           JUNCTION      0.16   677.12     0  03:06     0.00457        5.76       0.233
  WS02004406           JUNCTION      0.00   677.36     0  03:06           0        5.73       0.568
  WS02004409           JUNCTION      0.00   676.95     0  03:06           0        5.69       0.276
  WS02004410           JUNCTION      0.00   675.38     0  03:06           0        5.67       0.317
  WS02004411           JUNCTION      0.00   674.31     0  03:07           0        5.65       0.328
  WS02004412           JUNCTION      0.00   673.62     0  03:07           0        5.63       0.356
  WS02004413           JUNCTION      0.00   673.27     0  03:07           0        5.61       0.532
  WS02004405           JUNCTION      0.04   677.25     0  03:06     0.00107        5.75       0.348
  WS02006109           JUNCTION      1.23   670.88     0  03:04      0.0347        5.85       0.290
  WS02006110           JUNCTION      0.00   670.85     0  03:04           0        5.84       0.329
  WS02006111           JUNCTION      0.00   705.67     0  03:03           0        5.81       0.065
  WS02006112           JUNCTION     26.73   682.88     0  03:04      0.0709        5.88       0.486
  WS02006113           JUNCTION      0.00   670.87     0  03:04           0        5.82       0.141
  WS02006115           JUNCTION      0.00   683.43     0  03:04           0        5.85       0.333
  WS02006116           JUNCTION      0.00   681.24     0  03:05           0        5.83       0.289
  WS02006230           JUNCTION     10.28   337.89     0  07:33        0.29        3.76       0.255
  WS02006231           JUNCTION      0.00   327.92     0  07:33           0        3.48       0.282
  WS02006232           JUNCTION      0.00   328.52     0  07:33           0        3.49       0.411
  WS02006234           JUNCTION      0.00   329.40     0  07:32           0         3.5       0.155
  WS02006235           JUNCTION      0.00   330.04     0  07:32           0        3.55       0.290
  WS02006238           JUNCTION      0.00   330.38     0  07:32           0         2.6       0.090
  WS02006240           JUNCTION      0.00   335.00     0  03:32           0        2.57       0.449
  WS02006242           JUNCTION      0.00   342.87     0  03:31           0        2.56       0.581
  WS02006243           JUNCTION      0.00   350.67     0  03:31           0        2.55      -0.085
  WS02006245           JUNCTION      0.00   354.98     0  03:31           0        2.56       0.576
  WS02006247           JUNCTION      0.00   358.99     0  03:30           0        2.57       0.299
  WS02006248           JUNCTION      0.00   362.68     0  03:30           0        2.57       0.027
  WS02006249           JUNCTION      0.00   408.91     0  03:30           0        2.62       0.582
  WS02006239           JUNCTION      0.00   331.46     0  07:32           0        2.57      -0.097
  WS02006251           JUNCTION      0.08   411.08     0  03:30     0.00217        2.65       0.299
  WS02006252           JUNCTION      0.00   399.93     0  07:10           0        2.22       0.021
  WS02006253           JUNCTION      3.67   134.77     0  03:01     0.00915       0.435       0.963
  WS02006256           JUNCTION      0.00   599.85     0  02:40           0        1.81       0.115
  WS02004138           JUNCTION      0.00   190.00     0  05:40           0        2.17       0.156
  WS02004407           JUNCTION      0.00   677.36     0  03:06           0        5.69       0.120
  WS02006228           JUNCTION      0.00   669.80     0  03:04           0        5.83       0.240
  WS02006229           JUNCTION      0.00   669.25     0  03:04           0        5.85       0.234
  WS02006280           JUNCTION      0.00   612.00     0  03:02           0         2.1       0.003
  WS02006284           JUNCTION      0.10   611.08     0  03:02      0.0027         2.1       0.059
  WS02006287           JUNCTION      0.00   609.80     0  03:02           0         2.1       0.034
  WSF200               JUNCTION      0.00   673.66     0  03:08           0        5.57       0.073
  HS02004901           JUNCTION     32.58    32.58     0  03:01      0.0854      0.0856       2.107
  HS02004881           JUNCTION     13.69   131.69     0  03:01      0.0372       0.403       0.025
  HS02004876           JUNCTION     24.31   119.35     0  03:01      0.0714       0.367       0.153
  HS02004870           JUNCTION     25.15    96.62     0  03:01      0.0704       0.295       0.038
  HS02004862           JUNCTION     23.13    73.47     0  03:01      0.0763       0.225       0.079
  HS02004856           JUNCTION     18.81    51.87     0  03:01      0.0529        0.15       0.974
  HS02004852           JUNCTION      0.00    35.11     0  03:01           0      0.0975       0.061
  HS02004848           JUNCTION     51.30    51.30     0  03:01        0.17        0.17       0.030
  HS02004842           JUNCTION      0.00    15.11     0  03:01           0      0.0852      18.027
  HS02004837           JUNCTION     48.64    62.29     0  03:01       0.302       0.374       0.217
  HS02004830           JUNCTION      0.15    61.39     0  03:01     0.00423       0.364       0.340
  HS02004824           JUNCTION     61.99   121.75     0  03:01       0.222       0.584       0.093
  HS02004817           JUNCTION      0.60   118.00     0  03:02      0.0169       0.601       2.855
  HS02004807           JUNCTION     46.68   158.09     0  03:01       0.129       0.714       0.602
  HS02004802           JUNCTION      0.00   156.93     0  03:03           0       0.709       0.572
  HS02004799           JUNCTION     37.02   389.12     0  03:01       0.105        1.19       0.208
  HS02004792           JUNCTION    159.34   356.46     0  03:01       0.445        1.08       0.038
  HS02004788           JUNCTION     52.70   202.57     0  03:02       0.193       0.638       0.062
  HS02004785           JUNCTION      0.15   157.26     0  03:01     0.00423       0.447       0.111
  HS02004777           JUNCTION      0.03   160.00     0  03:01    0.000846       0.447       1.175
  HS02004770           JUNCTION    133.95   163.78     0  03:01       0.365       0.449       0.699
  HS02004480           JUNCTION      0.00   456.68     0  03:01           0         1.4       0.084
  HS02004479           JUNCTION      0.00    72.18     0  03:02           0       0.228       0.322
  HS02004478           JUNCTION      0.00   609.26     0  03:02           0         2.1       0.018
  YS02001745           JUNCTION    387.96   387.96     0  03:01        2.65        2.65       0.394
  YS02001748           JUNCTION      0.04   396.74     0  03:01     0.00127        2.64       0.883
  YS02001751           JUNCTION      0.01   396.69     0  03:01     0.00031        2.62       0.906
  YS02001754           JUNCTION      0.26   396.62     0  03:01     0.00733         2.6       0.961
  YS02001762           JUNCTION      0.00   365.73     0  02:53           0        1.64       1.301
  YS02001765           JUNCTION      0.00   366.34     0  02:53           0        1.64       1.501
  YS02001767           JUNCTION      0.54   366.35     0  02:53      0.0151        1.67       2.202
  YS02001770           JUNCTION    496.57   544.98     0  03:24        2.97        3.33       0.963
  YS02001774           JUNCTION      0.00   545.38     0  03:24           0           2       1.267
  YS02001779           JUNCTION      0.01   545.37     0  03:23    0.000141        1.98       0.796
  YS02001882           JUNCTION      0.00    27.31     0  02:46           0      0.0153      18.466
  YS02001884           JUNCTION      0.00    30.40     0  02:45           0        0.05      14.614
  YS02001759           JUNCTION    483.56   728.88     0  02:53        2.74        3.99       0.577
  YS02001887           JUNCTION    623.03   623.03     0  03:01        3.16        3.19       0.275
  YS02001890           JUNCTION      0.00   623.30     0  03:01           0        3.14       0.302
  YS02001898           JUNCTION      0.00   517.84     0  03:06           0        3.09       0.112
  YS02001901           JUNCTION      0.00   517.77     0  03:06           0        3.08       0.233
  YS02001904           JUNCTION      0.00   517.84     0  03:07           0        3.08       0.212
  YS02001907           JUNCTION      0.00  1056.57     0  03:01           0        6.88       0.358
  YS02001910           JUNCTION      0.00   541.06     0  03:01           0        3.81       0.315
  YS02001915           JUNCTION    347.37   540.92     0  03:01        2.22        3.85       0.170
  YS02001918           JUNCTION      0.00   275.16     0  02:53           0        1.65       0.116
  YS02001619           JUNCTION    337.96   337.96     0  03:01        2.21        2.21       0.550
  YS02001629           JUNCTION      0.00   214.79     0  02:48           0        1.56       1.874
  YS02001641           JUNCTION      0.00   449.60     0  02:48           0        4.08       0.514
  YS02001644           JUNCTION    368.39  1301.68     0  03:22        2.55        10.5       0.258
  YS02001652           JUNCTION      0.00   480.33     0  03:01           0        2.31       1.012
  YS02001655           JUNCTION      0.15   479.78     0  03:01     0.00434        2.33       1.082
  YS02001920           JUNCTION      2.87   274.26     0  02:53      0.0809        1.64       0.189
  YS02001923           JUNCTION      0.04   259.15     0  02:53     0.00106        1.54       0.050
  YS02001926           JUNCTION      0.05   198.16     0  02:53     0.00147        1.53       0.220
  YS02001929           JUNCTION    163.23   163.23     0  03:01        1.53        1.53       0.038
  YS02001658           JUNCTION      0.00   575.68     0  02:42           0        2.35       1.078
  YS02001661           JUNCTION      0.00   727.18     0  02:53           0        2.59      -0.222
  YS02001664           JUNCTION    446.68   446.68     0  03:01        2.35         2.6       0.207
  YS02001622           JUNCTION      0.00   338.47     0  03:01           0        2.19       1.474
  YS02001633           JUNCTION    373.80   450.53     0  02:48        2.63        4.14       0.779
  YS02001649           JUNCTION      0.00   958.65     0  02:49           0        6.05       0.619
  YS02001757           JUNCTION      0.00  1862.68     0  02:50           0        8.47       1.099
  YS02001895           JUNCTION      0.00   517.83     0  03:07           0        3.09       0.168
  YS02001625           JUNCTION      0.00   338.07     0  03:01           0        2.16       1.814
  YS02163301           JUNCTION      0.00   215.00     0  02:48           0        1.54       1.588
  YS02163601           JUNCTION      0.11   450.31     0  02:48      0.0031         4.1       0.734
  YS02164001           JUNCTION      0.00   449.87     0  02:48           0        4.08       0.500
  YS02001647           JUNCTION      0.00   681.49     0  02:48           0        5.29       0.543
  YSB1154              JUNCTION     43.21    43.21     0  03:01       0.127       0.128       1.144
  YSB6556              JUNCTION      0.00    41.78     0  03:01           0       0.129       0.980
  YSB1174              JUNCTION     35.94    35.94     0  03:01      0.0924      0.0932       1.402
  YSB1171              JUNCTION      0.00    73.32     0  03:01           0       0.227       2.864
  YS02006553           JUNCTION      0.00   672.88     0  03:32           0        6.12       0.262
  YS02006561           JUNCTION      0.00   969.22     0  03:00           0        8.97       0.005
  YS02006556           JUNCTION      0.00   672.53     0  03:32           0        6.13       0.186
  YS02006558           JUNCTION    532.26   969.71     0  03:00         2.9           9       0.064
  YS02001783           JUNCTION      0.00   969.15     0  03:00           0        8.97       0.081
  YS02001784           JUNCTION      1.06   970.17     0  03:00      0.0299        8.99       0.119
  YS02001786           JUNCTION      0.06   970.36     0  03:01     0.00159        8.98       0.151
  YS02001788           JUNCTION      0.07   970.17     0  03:00       0.002        8.97       0.155
  YS02001790           JUNCTION      0.15   970.43     0  03:00     0.00437        8.96       0.189
  YS02001791           JUNCTION      0.00   970.44     0  03:01           0        8.94       0.161
  YS02001793           JUNCTION      0.00   970.53     0  03:00           0        8.94       0.163
  WS02004139           JUNCTION      0.32   193.01     0  00:00     0.00905        2.17       1.516
  WSC                  OUTFALL       0.00   834.33     0  03:09           0        8.21       0.000
  3                    OUTFALL       0.00   502.99     0  02:40           0       0.813       0.000
  4                    OUTFALL       0.00    46.90     0  07:31           0      0.0402       0.000
  5                    OUTFALL       0.00     0.00     0  00:00           0           0       0.000 ltr
  JK-storage           STORAGE       0.00  1098.45     0  02:23           0        9.08       0.218
  CC-storage           STORAGE       0.00  1862.68     0  02:50           0        5.99       1.054
  XR-storage           STORAGE     849.17   849.17     0  03:01        10.2        10.8      -0.003
  
  
  **********************
  Node Surcharge Summary
  **********************
  
  Surcharging occurs when water rises above the top of the highest conduit.
  ---------------------------------------------------------------------
                                               Max. Height   Min. Depth
                                   Hours       Above Crown    Below Rim
  Node                 Type      Surcharged         Meters       Meters
  ---------------------------------------------------------------------
  WS02004402           JUNCTION        0.04          0.007        1.733
  WS02004403           JUNCTION        0.05          0.008        2.022
  WS02004404           JUNCTION        0.50          0.068        2.712
  WS02004406           JUNCTION        0.16          0.039        2.411
  WS02004405           JUNCTION        0.20          0.055        2.745
  WS02006109           JUNCTION        1.05          0.299        1.521
  WS02006110           JUNCTION        0.80          0.111        1.739
  WS02006112           JUNCTION        0.85          0.214        1.466
  WS02006230           JUNCTION        0.13          0.084        1.486
  WS02006231           JUNCTION        0.24          0.082        1.448
  WS02006232           JUNCTION        0.82          0.190        1.290
  WS02006234           JUNCTION        0.24          0.051        1.189
  WS02006235           JUNCTION        0.33          0.064        1.226
  WS02006238           JUNCTION        0.39          0.078        1.352
  WS02006242           JUNCTION        0.01          0.001        0.819
  WS02006239           JUNCTION        0.06          0.014        1.276
  WS02006252           JUNCTION        0.70          0.188        0.912
  WS02006228           JUNCTION        1.03          0.362        1.838
  YS02001748           JUNCTION        5.05          0.453        0.737
  YS02001751           JUNCTION        5.17          0.912        0.288
  YS02001754           JUNCTION        5.30          0.856        0.294
  YS02001762           JUNCTION        5.52          1.040        0.110
  YS02001765           JUNCTION        5.49          0.985        0.115
  YS02001767           JUNCTION        5.47          0.945        0.085
  YS02001770           JUNCTION        5.46          0.890        0.030
  YS02001774           JUNCTION        5.51          0.984        0.066
  YS02001779           JUNCTION        5.30          0.680        0.000
  YS02001882           JUNCTION        1.04          0.631        0.199
  YS02001884           JUNCTION        1.07          0.673        0.197
  YS02001759           JUNCTION        5.54          1.080        0.130
  YS02001887           JUNCTION        1.16          0.759        0.191
  YS02001890           JUNCTION        1.19          0.760        0.000
  YS02001898           JUNCTION        1.00          0.533        0.207
  YS02001901           JUNCTION        1.12          0.677        0.193
  YS02001904           JUNCTION        1.10          0.639        0.211
  YS02001907           JUNCTION        1.67          0.950        0.000
  YS02001910           JUNCTION        1.24          0.788        0.312
  YS02001915           JUNCTION        1.03          0.609        0.391
  YS02001918           JUNCTION        0.79          0.296        0.514
  YS02001619           JUNCTION        5.17          0.610        0.000
  YS02001629           JUNCTION        5.18          0.470        0.000
  YS02001641           JUNCTION        5.50          0.965        0.135
  YS02001644           JUNCTION        5.50          0.920        0.000
  YS02001652           JUNCTION        5.37          1.069        0.061
  YS02001655           JUNCTION        5.19          1.200        0.000
  YS02001920           JUNCTION        0.83          0.382        0.758
  YS02001658           JUNCTION        5.07          1.300        0.000
  YS02001661           JUNCTION        0.21          0.897        0.493
  YS02001622           JUNCTION        5.20          0.620        0.000
  YS02001633           JUNCTION        5.49          0.997        0.063
  YS02001649           JUNCTION        5.52          1.050        0.000
  YS02001757           JUNCTION        5.62          1.176        0.034
  YS02001895           JUNCTION        1.02          0.567        0.183
  YS02001625           JUNCTION        5.43          0.780        0.000
  YS02163301           JUNCTION        5.46          0.939        0.091
  YS02163601           JUNCTION        5.53          1.047        0.033
  YS02164001           JUNCTION        5.49          0.973        0.127
  YS02001647           JUNCTION        5.41          0.806        0.094
  YS02006553           JUNCTION        1.75          0.970        0.220
  YS02006561           JUNCTION        0.92          0.290        0.860
  YS02006556           JUNCTION        1.44          0.891        0.459
  YS02006558           JUNCTION        1.40          0.877        0.523
  YS02001783           JUNCTION        1.65          0.680        0.920
  YS02001784           JUNCTION        1.68          0.627        0.863
  YS02001786           JUNCTION        1.65          0.472        0.958
  YS02001788           JUNCTION        1.63          0.459        1.021
  YS02001790           JUNCTION        5.20          1.157        0.000
  YS02001791           JUNCTION        5.38          1.373        0.547
  YS02001793           JUNCTION        5.41          2.600        0.000
  
  
  *********************
  Node Flooding Summary
  *********************
  
  Flooding refers to all water that overflows a node, whether it ponds or not.
  --------------------------------------------------------------------------
                                                             Total   Maximum
                                 Maximum   Time of Max       Flood    Ponded
                        Hours       Rate    Occurrence      Volume     Depth
  Node                 Flooded       LPS   days hr:min    10^6 ltr    Meters
  --------------------------------------------------------------------------
  YS02001779              2.84    545.28      0  03:23       1.957     0.000
  YS02001890              0.23    107.40      0  03:01       0.038     0.000
  YS02001907              0.66    617.56      0  03:01       0.744     0.000
  YS02001619              0.01     20.17      0  02:42       0.000     0.000
  YS02001629              0.01     36.99      0  02:41       0.000     0.000
  YS02001644              4.26   1301.68      0  03:22       9.036     0.000
  YS02001655              0.01      7.67      0  02:42       0.000     0.000
  YS02001658              0.01    218.61      0  02:42       0.000     0.000
  YS02001622              0.01      5.22      0  02:42       0.000     0.000
  YS02001649              0.05     36.06      0  03:39       0.002     0.000
  YS02001625              1.15    318.46      0  03:01       0.564     0.000
  YS02001790              0.01     97.84      0  02:27       0.000     0.000
  YS02001793              0.01    300.32      0  02:24       0.000     0.000
  JK-storage              4.86    970.43      0  03:00       6.949     0.000
  XR-storage              6.98    686.70      0  03:20       7.715     0.000
  
  
  **********************
  Storage Volume Summary
  **********************
  
  --------------------------------------------------------------------------------------------------
                         Average     Avg  Evap Exfil       Maximum     Max    Time of Max    Maximum
                          Volume    Pcnt  Pcnt  Pcnt        Volume    Pcnt     Occurrence    Outflow
  Storage Unit           1000 m3    Full  Loss  Loss       1000 m3    Full    days hr:min        LPS
  --------------------------------------------------------------------------------------------------
  JK-storage               0.262      90     0     0         0.291     100       0  02:28     741.11
  CC-storage               2.930      19     0     0         3.961      25       0  03:21     399.93
  XR-storage               0.919      99     0     0         0.926     100       0  00:51     190.00
  
  
  ***********************
  Outfall Loading Summary
  ***********************
  
  -----------------------------------------------------------
                         Flow       Avg       Max       Total
                         Freq      Flow      Flow      Volume
  Outfall Node           Pcnt       LPS       LPS    10^6 ltr
  -----------------------------------------------------------
  WSC                  100.00    342.02    834.33       8.213
  3                     35.72    131.33    502.99       0.813
  4                     10.74     15.42     46.90       0.040
  5                      0.00      0.00      0.00       0.000
  -----------------------------------------------------------
  System                36.61    488.77   1216.17       9.066
  
  
  ********************
  Link Flow Summary
  ********************
  
  -----------------------------------------------------------------------------
                                 Maximum  Time of Max   Maximum    Max/    Max/
                                  |Flow|   Occurrence   |Veloc|    Full    Full
  Link                 Type          LPS  days hr:min     m/sec    Flow   Depth
  -----------------------------------------------------------------------------
  WS02003066WSF200     CONDUIT    673.66     0  03:08      2.92    0.11    0.26
  WS02006287WS02006284 CONDUIT    610.98     0  03:02      2.31    0.28    0.37
  WS02006284WS02006280 CONDUIT    612.00     0  03:02      2.55    0.26    0.35
  WS02006280WS02006229 CONDUIT    612.13     0  03:02      4.13    0.13    0.24
  WS02006229WS02006228 CONDUIT    669.80     0  03:04      1.33    2.22    1.00
  WS02006256WS02006235 CONDUIT    149.95     0  00:35      2.14    1.59    1.00
  WS02006253WS02006251 CONDUIT    134.28     0  03:01      0.73    0.40    0.87
  WS02006252WS02006251 CONDUIT    399.91     0  07:30      3.18    1.47    1.00
  WS02006251WS02006249 CONDUIT    408.91     0  03:30      1.20    1.18    0.83
  WS02006249WS02006248 CONDUIT    362.68     0  03:30      1.17    1.99    0.77
  WS02006248WS02006247 CONDUIT    358.99     0  03:30      1.14    0.78    0.79
  WS02006247WS02006245 CONDUIT    354.98     0  03:31      1.12    2.81    0.81
  WS02006245WS02006243 CONDUIT    350.67     0  03:31      1.17    1.04    0.81
  WS02006243WS02006242 CONDUIT    342.87     0  03:31      1.05    0.73    0.93
  WS02006242WS02006240 CONDUIT    335.00     0  03:32      0.99    1.33    0.98
  WS02006240WS02006239 CONDUIT    331.46     0  07:32      1.03    1.04    0.99
  WS02006239WS02006238 CONDUIT    330.38     0  07:32      0.94    1.06    1.00
  WS02006238WS02006235 CONDUIT    330.04     0  07:32      0.93    0.74    1.00
  WS02006235WS02006234 CONDUIT    329.40     0  07:32      1.01    3.48    1.00
  WS02006234WS02006232 CONDUIT    328.52     0  07:33      0.92    0.66    1.00
  WS02006232WS02006231 CONDUIT    327.92     0  07:33      0.97    0.69    1.00
  WS02006231WS02006230 CONDUIT    327.61     0  07:33      1.32    4.97    1.00
  WS02006230WS02006229 CONDUIT    336.51     0  07:34      0.88    7.49    1.00
  WS02006228WS02006109 CONDUIT    669.65     0  03:04      1.33    2.93    1.00
  WS02006116WS02004401 CONDUIT    678.38     0  03:05      0.87    0.94    0.99
  WS02006115WS02006116 CONDUIT    681.24     0  03:05      0.94    0.87    0.91
  WS02006113WS02006111 CONDUIT    705.67     0  03:03      2.60    0.85    0.55
  WS02006112WS02006115 CONDUIT    683.43     0  03:04      0.89    0.40    0.95
  WS02006111WS02006112 CONDUIT    667.72     0  03:05      1.72    0.32    0.73
  WS02006110WS02006113 CONDUIT    670.87     0  03:04      1.52    0.61    0.82
  WS02006109WS02006110 CONDUIT    670.85     0  03:04      1.33    1.29    1.00
  WS02004411WS02004412 CONDUIT    673.62     0  03:07      1.04    0.96    0.77
  WS02004401WS02004402 CONDUIT    676.66     0  03:06      0.86    0.81    1.00
  WS02004413WS02003067 CONDUIT    673.15     0  03:08      1.26    0.29    0.64
  WS02004412WS02004413 CONDUIT    673.27     0  03:07      0.95    0.45    0.84
  WS02004410WS02004411 CONDUIT    674.31     0  03:07      1.04    0.92    0.77
  WS02004409WS02004410 CONDUIT    675.38     0  03:06      1.05    0.87    0.76
  WS02004407WS02004409 CONDUIT    676.95     0  03:06      1.54    0.24    0.55
  WS02004406WS02004407 CONDUIT    677.36     0  03:06      1.22    0.30    0.67
  WS02004405WS02004406 CONDUIT    677.36     0  03:06      0.86    1.34    1.00
  WS02004404WS02004405 CONDUIT    677.21     0  03:06      0.92    6.63    1.00
  WS02004403WS02004404 CONDUIT    676.96     0  03:06      0.86    0.49    1.00
  WS02004402WS02004403 CONDUIT    676.77     0  03:06      0.86    0.97    1.00
  WS02004139WS02001211 CONDUIT    190.31     0  06:00      0.69    0.24    0.46
  WS02004138WS02004139 CONDUIT    192.69     0  00:00      2.95    0.04    0.33
  WS02003067WS02003066 CONDUIT    673.51     0  03:08      1.37    0.22    0.45
  WS02001213WS02003059 CONDUIT    199.01     0  07:50      0.65    0.33    0.69
  WS02001212WS02001213 CONDUIT    197.85     0  07:50      1.03    0.31    0.36
  WS02001211WS02001212 CONDUIT    197.66     0  06:00      0.54    0.15    0.51
  WS02003072WS02003073 CONDUIT    832.60     0  03:08      1.66    1.80    0.46
  WS02003069WS02003072 CONDUIT    832.59     0  03:08      1.56    0.40    0.48
  WS02003060WS02003069 CONDUIT    832.42     0  03:07      1.81    0.33    0.43
  WS02003059WS02003060 CONDUIT    200.79     0  07:50      0.64    0.13    0.61
  HS02004901HS02004770 CONDUIT     32.23     0  03:01      0.09    0.12    0.50
  HS02004876HS02004881 CONDUIT    119.33     0  03:01      1.17    1.27    0.15
  HS02004870HS02004876 CONDUIT     96.14     0  03:01      0.79    0.06    0.17
  HS02004842HS02004848 CONDUIT     15.11     0  03:01      0.07    0.01    0.33
  HS02004837HS02004842 CONDUIT     16.10     0  03:03      0.42    0.01    0.34
  HS02004830HS02004837 CONDUIT     61.24     0  03:01      0.66    0.06    0.13
  HS02004824HS02004830 CONDUIT     60.79     0  03:01      0.63    0.08    0.15
  HS02004817HS02004824 CONDUIT    117.40     0  03:02      0.30    0.05    0.56
  HS02004770HS02004777 CONDUIT    159.97     0  03:01      0.45    0.29    0.51
  HS02004799HS02004480 CONDUIT    387.41     0  03:01      1.00    0.49    0.56
  HS02004792HS02004799 CONDUIT    353.08     0  03:01      1.12    0.22    0.45
  HS02004788HS02004792 CONDUIT    202.15     0  03:02      1.22    0.13    0.24
  HS02004785HS02004788 CONDUIT    156.66     0  03:02      0.85    1.18    0.26
  HS02004777HS02004785 CONDUIT    157.11     0  03:01      0.53    0.19    0.42
  HS02004480HS02004478 CONDUIT    456.73     0  03:01      1.47    1.92    0.44
  HS02004479HS02004480 CONDUIT     74.06     0  03:02      0.22    0.07    0.53
  HS02004862HS02004870 CONDUIT     73.11     0  03:01      0.77    0.08    0.14
  HS02004848HS02004852 CONDUIT     35.11     0  03:01      0.52    0.04    0.10
  HS02004856HS02004862 CONDUIT     51.24     0  03:01      0.58    0.05    0.13
  HS02004852HS02004856 CONDUIT     35.04     0  03:02      0.32    0.04    0.16
  HS02004802HS02004478 CONDUIT    160.73     0  03:04      0.54    0.14    0.45
  HS02004478WS02006287 CONDUIT    609.80     0  03:02      2.03    0.17    0.33
  HS02004817HS02004807 CONDUIT    120.83     0  03:04      0.24    0.07    0.73
  HS02004807HS02004802 CONDUIT    156.93     0  03:03      0.45    0.30    0.51
  YS02001759YS02001757 CONDUIT    728.55     0  02:53      0.93    0.52    1.00
  YS02001762YS02001759 CONDUIT    365.73     0  02:53      0.47    0.42    1.00
  YS02001765YS02001762 CONDUIT    365.73     0  02:53      0.47    0.34    1.00
  YS02001770YS02001767 CONDUIT    365.81     0  02:53      0.47    1.45    1.00
  YS02001774YS02001770 CONDUIT    545.38     0  03:24      0.69    0.35    1.00
  YS02001779YS02001774 CONDUIT    545.37     0  03:23      0.69    0.27    1.00
  YS02001649YS02001757 CONDUIT    959.50     0  02:49      1.22    0.58    1.00
  YS02001767YS02001765 CONDUIT    366.34     0  02:53      0.47    0.46    1.00
  YS02006561YS02001783 CONDUIT    969.15     0  03:00      2.00    0.50    1.00
  YS02001783YS02001784 CONDUIT    969.11     0  03:00      1.93    1.34    1.00
  YS02001784YS02001785 CONDUIT    970.31     0  03:01      1.93    2.26    1.00
  YS02001788YS02001790 CONDUIT    970.27     0  03:00      2.05    0.72    1.00
  YS02001790YS02001791 CONDUIT    970.44     0  03:01      2.42    1.06    1.00
  YS02001791YS02001793 CONDUIT    970.53     0  03:00      4.61    0.42    1.00
  YS02001910YS02001907 CONDUIT    541.03     0  03:01      0.69    0.30    1.00
  YS02001786YS02001788 CONDUIT    970.10     0  03:00      2.02    1.87    1.00
  YS02001915YS02001910 CONDUIT    541.06     0  03:01      0.69    0.27    1.00
  YS02001918YS02001915 CONDUIT    275.76     0  02:53      0.44    0.15    1.00
  YS02001923YS02001920 CONDUIT    271.39     0  02:53      0.71    0.12    1.00
  YS02001926YS02001923 CONDUIT    259.11     0  02:53      0.82    0.37    0.95
  YS02001929YS02001926 CONDUIT    198.11     0  02:53      0.87    0.09    0.86
  YS02001920YS02001918 CONDUIT    275.16     0  02:53      0.70    0.27    1.00
  YS02001629YS02163301 CONDUIT    215.00     0  02:48      0.27    0.26    1.00
  YS02001619YS02001622 CONDUIT    338.47     0  03:01      0.60    0.50    1.00
  YS02001622YS02001625 CONDUIT    338.07     0  03:01      0.43    0.18    1.00
  YS02001625YS02001629 CONDUIT    214.79     0  02:48      0.27    0.10    1.00
  YS02163301YS02001633 CONDUIT    215.02     0  02:48      0.27    0.20    1.00
  YS02163601YS02164001 CONDUIT    449.87     0  02:48      0.57    0.40    1.00
  YS02164001YS02001641 CONDUIT    449.60     0  02:48      0.57    0.61    1.00
  YS02001641YS02001644 CONDUIT    449.36     0  02:48      0.57    1.45    1.00
  YS02001647YS02001649 CONDUIT    681.26     0  02:48      0.87    0.36    1.00
  YS02006553YS02006556 CONDUIT    672.53     0  03:32      0.86    0.58    1.00
  YS02006556YS02006558 CONDUIT    672.68     0  03:31      0.86    0.53    1.00
  YSB6556YSB1171       CONDUIT     41.32     0  03:02      0.13    0.04    0.80
  YS02001907YS02006553 CONDUIT    672.88     0  03:32      0.75    0.79    1.00
  YS02006558YS02006561 CONDUIT    969.22     0  03:00      3.43    2.14    1.00
  YS02001633YS02163601 CONDUIT    450.20     0  02:48      0.57    0.47    1.00
  YS02001644YS02001647 CONDUIT    681.49     0  02:48      0.87    0.40    1.00
  YS02001745YS02001748 CONDUIT    396.70     0  03:01      1.48    0.15    0.96
  YS02001748YS02001751 CONDUIT    396.68     0  03:01      1.03    0.20    1.00
  YS02001751YS02001754 CONDUIT    396.36     0  03:01      0.84    0.19    1.00
  YS02001754YS02001757 CONDUIT    396.66     0  03:01      0.51    0.16    1.00
  YS02001882YS02001884 CONDUIT     27.31     0  02:46      0.08    0.03    1.00
  YS02001884YS02001887 CONDUIT     30.40     0  02:45      0.05    0.04    1.00
  YS02001890YS02001895 CONDUIT    517.83     0  03:07      0.66    0.24    1.00
  YS02001895YS02001898 CONDUIT    517.84     0  03:06      0.66    0.90    1.00
  YS02001898YS02001901 CONDUIT    517.77     0  03:06      0.66    0.33    1.00
  YS02001901YS02001904 CONDUIT    517.84     0  03:07      0.66    0.80    1.00
  YS02001904YS02001907 CONDUIT    517.89     0  03:06      0.66    0.18    1.00
  YS02001887YS02001890 CONDUIT    623.30     0  03:01      0.79    1.07    1.00
  YS02001652YS02001649 CONDUIT    481.39     0  03:01      0.61    0.24    1.00
  YS02001655YS02001652 CONDUIT    480.33     0  03:01      0.89    0.23    1.00
  YS02001658YS02001655 CONDUIT    479.62     0  03:01      1.18    0.20    1.00
  YS02001661YS02001658 CONDUIT    575.68     0  02:42      1.55    0.23    1.00
  YS02001664YS02001661 CONDUIT    727.18     0  02:53      1.55    0.23    0.75
  YSB1154YSB6556       CONDUIT     41.78     0  03:01      0.19    0.08    0.69
  YSB1174YSB1171       CONDUIT     34.51     0  03:01      0.10    0.05    0.81
  YSB1171HS02004479    CONDUIT     72.18     0  03:02      0.54    0.05    0.65
  HS02004881HS02006253 CONDUIT    131.65     0  03:01      2.66    0.03    0.22
  YS02001793JiankangQianchi CONDUIT   1098.45     0  02:23      2.29    0.09    1.00
  YS02001757CaochengTiaoxuchi CONDUIT   1862.68     0  02:50      2.53    0.82    1.00
  WSF200WS02003060     CONDUIT    674.57     0  03:08      2.10    0.15    0.34
  1                    CONDUIT    834.33     0  03:09      3.17    0.29    0.37
  2                    CONDUIT     46.90     0  07:31      3.91    0.11    0.23
  3                    CONDUIT    502.99     0  02:40      9.82    0.80    0.68
  4                    CONDUIT      0.00     0  00:00      0.00    0.00    0.00
  CC-Pump-1            PUMP       200.00     0  03:30              1.00
  CC-Pump-2            PUMP       200.00     0  02:20              1.00
  JK-Pump-1            PUMP       299.95     0  06:50              1.00
  JK-Pump-2            PUMP       300.00     0  03:50              1.00
  XR-Pump-1            PUMP        95.00     0  00:00              1.00
  XR-Pump-2            PUMP        95.00     0  07:40              1.00
  XR-Pump-3            PUMP        95.00     0  04:10              1.00
  XR-Pump-4            PUMP        95.00     0  00:00              1.00
  
  
  ***************************
  Flow Classification Summary
  ***************************
  
  -------------------------------------------------------------------------------------
                      Adjusted    ---------- Fraction of Time in Flow Class ---------- 
                       /Actual         Up    Down  Sub   Sup   Up    Down  Norm  Inlet 
  Conduit               Length    Dry  Dry   Dry   Crit  Crit  Crit  Crit  Ltd   Ctrl  
  -------------------------------------------------------------------------------------
  WS02003066WSF200        1.00   0.06  0.00  0.00  0.00  0.94  0.00  0.00  0.71  0.00
  WS02006287WS02006284    1.00   0.05  0.02  0.00  0.55  0.38  0.00  0.00  0.67  0.00
  WS02006284WS02006280    1.00   0.06  0.00  0.00  0.00  0.00  0.00  0.94  0.00  0.00
  WS02006280WS02006229    1.00   0.06  0.00  0.00  0.00  0.00  0.00  0.94  0.00  0.00
  WS02006229WS02006228    1.00   0.00  0.00  0.00  1.00  0.00  0.00  0.00  0.00  0.00
  WS02006256WS02006235    1.00   0.01  0.00  0.00  0.98  0.00  0.00  0.00  0.00  0.00
  WS02006253WS02006251    1.00   0.01  0.04  0.00  0.95  0.00  0.00  0.00  0.00  0.00
  WS02006252WS02006251    1.00   0.11  0.00  0.00  0.00  0.00  0.89  0.00  0.00  0.00
  WS02006251WS02006249    1.00   0.00  0.00  0.00  1.00  0.00  0.00  0.00  0.40  0.00
  WS02006249WS02006248    1.00   0.00  0.00  0.00  0.76  0.00  0.24  0.00  0.00  0.00
  WS02006248WS02006247    1.00   0.00  0.00  0.00  0.98  0.00  0.00  0.01  0.32  0.00
  WS02006247WS02006245    1.00   0.01  0.00  0.00  0.95  0.00  0.00  0.04  0.00  0.00
  WS02006245WS02006243    1.00   0.01  0.00  0.00  0.91  0.00  0.00  0.08  0.03  0.00
  WS02006243WS02006242    1.00   0.01  0.00  0.00  0.98  0.00  0.00  0.01  0.30  0.00
  WS02006242WS02006240    1.00   0.01  0.01  0.00  0.97  0.00  0.01  0.00  0.00  0.00
  WS02006240WS02006239    1.00   0.02  0.00  0.00  0.92  0.00  0.00  0.07  0.02  0.00
  WS02006239WS02006238    1.00   0.02  0.00  0.00  0.98  0.00  0.00  0.00  0.05  0.00
  WS02006238WS02006235    1.00   0.02  0.00  0.00  0.98  0.00  0.00  0.00  0.00  0.00
  WS02006235WS02006234    1.00   0.02  0.00  0.00  0.95  0.00  0.04  0.00  0.00  0.00
  WS02006234WS02006232    1.00   0.02  0.00  0.00  0.98  0.00  0.00  0.00  0.04  0.00
  WS02006232WS02006231    1.00   0.02  0.00  0.00  0.98  0.00  0.00  0.00  0.00  0.00
  WS02006231WS02006230    1.00   0.02  0.00  0.00  0.35  0.00  0.64  0.00  0.00  0.00
  WS02006230WS02006229    1.00   0.00  0.00  0.00  0.99  0.00  0.00  0.01  0.00  0.00
  WS02006228WS02006109    1.00   0.00  0.00  0.00  1.00  0.00  0.00  0.00  0.00  0.00
  WS02006116WS02004401    1.00   0.04  0.00  0.00  0.96  0.00  0.00  0.00  0.00  0.00
  WS02006115WS02006116    1.00   0.04  0.00  0.00  0.95  0.00  0.00  0.01  0.00  0.00
  WS02006113WS02006111    1.00   0.01  0.00  0.00  0.01  0.98  0.00  0.00  0.17  0.00
  WS02006112WS02006115    1.00   0.02  0.02  0.00  0.96  0.00  0.01  0.00  0.00  0.00
  WS02006111WS02006112    1.00   0.02  0.00  0.00  0.97  0.01  0.00  0.01  0.89  0.00
  WS02006110WS02006113    1.00   0.00  0.01  0.00  0.99  0.00  0.00  0.00  0.00  0.00
  WS02006109WS02006110    1.00   0.00  0.00  0.00  0.99  0.00  0.00  0.00  0.00  0.00
  WS02004411WS02004412    1.00   0.05  0.00  0.00  0.95  0.00  0.00  0.00  0.00  0.00
  WS02004401WS02004402    1.00   0.04  0.00  0.00  0.96  0.00  0.00  0.00  0.00  0.00
  WS02004413WS02003067    1.00   0.05  0.01  0.00  0.00  0.00  0.94  0.00  0.00  0.00
  WS02004412WS02004413    1.00   0.05  0.00  0.00  0.95  0.00  0.00  0.00  0.01  0.00
  WS02004410WS02004411    1.00   0.05  0.00  0.00  0.95  0.00  0.00  0.00  0.00  0.00
  WS02004409WS02004410    1.00   0.05  0.00  0.00  0.95  0.00  0.00  0.00  0.01  0.00
  WS02004407WS02004409    1.00   0.05  0.00  0.00  0.95  0.00  0.00  0.00  0.88  0.00
  WS02004406WS02004407    1.00   0.00  0.05  0.00  0.95  0.00  0.00  0.00  0.00  0.00
  WS02004405WS02004406    1.00   0.00  0.00  0.00  1.00  0.00  0.00  0.00  0.04  0.00
  WS02004404WS02004405    1.00   0.00  0.00  0.00  1.00  0.00  0.00  0.00  0.00  0.00
  WS02004403WS02004404    1.00   0.00  0.04  0.00  0.96  0.00  0.00  0.00  0.00  0.00
  WS02004402WS02004403    1.00   0.04  0.00  0.00  0.96  0.00  0.00  0.00  0.00  0.00
  WS02004139WS02001211    1.00   0.00  0.00  0.00  1.00  0.00  0.00  0.00  0.00  0.00
  WS02004138WS02004139    1.00   0.00  0.00  0.00  1.00  0.00  0.00  0.00  1.00  0.00
  WS02003067WS02003066    1.00   0.06  0.00  0.00  0.94  0.00  0.00  0.00  0.00  0.00
  WS02001213WS02003059    1.00   0.00  0.00  0.00  1.00  0.00  0.00  0.00  0.00  0.00
  WS02001212WS02001213    1.00   0.00  0.00  0.00  0.52  0.00  0.47  0.00  0.00  0.00
  WS02001211WS02001212    1.00   0.00  0.00  0.00  1.00  0.00  0.00  0.00  0.00  0.00
  WS02003072WS02003073    1.00   0.00  0.00  0.00  0.00  0.00  0.00  1.00  0.00  0.00
  WS02003069WS02003072    1.00   0.00  0.00  0.00  1.00  0.00  0.00  0.00  0.69  0.00
  WS02003060WS02003069    1.00   0.00  0.00  0.00  0.99  0.01  0.00  0.00  0.44  0.00
  WS02003059WS02003060    1.00   0.00  0.00  0.00  1.00  0.00  0.00  0.00  0.01  0.00
  HS02004901HS02004770    1.00   0.05  0.00  0.00  0.95  0.00  0.00  0.00  0.01  0.00
  HS02004876HS02004881    1.00   0.00  0.00  0.00  0.89  0.11  0.00  0.00  0.00  0.00
  HS02004870HS02004876    1.00   0.00  0.00  0.00  1.00  0.00  0.00  0.00  0.95  0.00
  HS02004842HS02004848    1.00   0.00  0.05  0.00  0.95  0.00  0.00  0.00  0.58  0.00
  HS02004837HS02004842    1.00   0.00  0.00  0.00  1.00  0.00  0.00  0.00  0.11  0.00
  HS02004830HS02004837    1.00   0.00  0.00  0.00  1.00  0.00  0.00  0.00  0.99  0.00
  HS02004824HS02004830    1.00   0.00  0.00  0.00  1.00  0.00  0.00  0.00  0.01  0.00
  HS02004817HS02004824    1.00   0.00  0.00  0.00  1.00  0.00  0.00  0.00  0.98  0.00
  HS02004770HS02004777    1.00   0.00  0.05  0.00  0.95  0.00  0.00  0.00  0.04  0.00
  HS02004799HS02004480    1.00   0.00  0.01  0.00  0.94  0.00  0.06  0.00  0.00  0.00
  HS02004792HS02004799    1.00   0.00  0.00  0.00  1.00  0.00  0.00  0.00  0.98  0.00
  HS02004788HS02004792    1.00   0.00  0.00  0.00  1.00  0.00  0.00  0.00  0.98  0.00
  HS02004785HS02004788    1.00   0.00  0.00  0.00  1.00  0.00  0.00  0.00  0.00  0.00
  HS02004777HS02004785    1.00   0.00  0.00  0.00  1.00  0.00  0.00  0.00  0.15  0.00
  HS02004480HS02004478    1.00   0.06  0.00  0.00  0.65  0.00  0.00  0.30  0.00  0.00
  HS02004479HS02004480    1.00   0.01  0.00  0.00  0.99  0.00  0.00  0.00  0.13  0.00
  HS02004862HS02004870    1.00   0.00  0.00  0.00  1.00  0.00  0.00  0.00  0.06  0.00
  HS02004848HS02004852    1.00   0.05  0.00  0.00  0.95  0.00  0.00  0.00  0.64  0.00
  HS02004856HS02004862    1.00   0.00  0.07  0.00  0.93  0.00  0.00  0.00  0.79  0.00
  HS02004852HS02004856    1.00   0.05  0.00  0.00  0.94  0.00  0.00  0.00  0.81  0.00
  HS02004802HS02004478    1.00   0.06  0.00  0.00  0.94  0.00  0.00  0.00  0.03  0.00
  HS02004478WS02006287    1.00   0.06  0.00  0.00  0.72  0.21  0.00  0.00  0.66  0.00
  HS02004817HS02004807    1.00   0.00  0.05  0.00  0.95  0.00  0.00  0.00  0.01  0.00
  HS02004807HS02004802    1.00   0.05  0.00  0.00  0.94  0.00  0.00  0.00  0.00  0.00
  YS02001759YS02001757    1.00   0.00  0.00  0.00  1.00  0.00  0.00  0.00  0.17  0.00
  YS02001762YS02001759    1.00   0.00  0.00  0.00  1.00  0.00  0.00  0.00  0.04  0.00
  YS02001765YS02001762    1.00   0.00  0.00  0.00  1.00  0.00  0.00  0.00  0.17  0.00
  YS02001770YS02001767    1.00   0.00  0.00  0.00  1.00  0.00  0.00  0.00  0.00  0.00
  YS02001774YS02001770    1.00   0.00  0.06  0.00  0.94  0.00  0.00  0.00  0.04  0.00
  YS02001779YS02001774    1.00   0.00  0.00  0.00  1.00  0.00  0.00  0.00  0.22  0.00
  YS02001649YS02001757    1.00   0.00  0.00  0.00  1.00  0.00  0.00  0.00  0.17  0.00
  YS02001767YS02001765    1.00   0.00  0.00  0.00  1.00  0.00  0.00  0.00  0.01  0.00
  YS02006561YS02001783    1.00   0.08  0.00  0.00  0.81  0.11  0.00  0.00  0.54  0.00
  YS02001783YS02001784    1.00   0.00  0.08  0.00  0.92  0.00  0.00  0.00  0.01  0.00
  YS02001784YS02001785    1.00   0.00  0.00  0.00  1.00  0.00  0.00  0.00  0.21  0.00
  YS02001788YS02001790    1.00   0.00  0.00  0.00  0.92  0.08  0.00  0.00  0.24  0.00
  YS02001790YS02001791    1.00   0.00  0.00  0.00  0.85  0.15  0.00  0.00  0.06  0.00
  YS02001791YS02001793    1.00   0.00  0.00  0.00  0.86  0.14  0.00  0.00  0.01  0.00
  YS02001910YS02001907    1.00   0.00  0.00  0.00  0.99  0.00  0.00  0.01  0.13  0.00
  YS02001786YS02001788    1.00   0.00  0.00  0.00  0.92  0.08  0.00  0.00  0.00  0.00
  YS02001915YS02001910    1.00   0.00  0.00  0.00  0.99  0.01  0.00  0.00  0.19  0.00
  YS02001918YS02001915    1.00   0.00  0.00  0.00  0.99  0.00  0.00  0.00  0.56  0.00
  YS02001923YS02001920    1.00   0.00  0.00  0.00  1.00  0.00  0.00  0.00  0.82  0.00
  YS02001926YS02001923    1.00   0.00  0.02  0.00  0.17  0.00  0.81  0.00  0.00  0.00
  YS02001929YS02001926    1.00   0.00  0.05  0.00  0.95  0.00  0.00  0.00  0.75  0.00
  YS02001920YS02001918    1.00   0.00  0.00  0.00  1.00  0.00  0.00  0.00  0.00  0.00
  YS02001629YS02163301    1.00   0.06  0.00  0.00  0.93  0.00  0.00  0.00  0.00  0.00
  YS02001619YS02001622    1.00   0.05  0.00  0.00  0.95  0.00  0.00  0.00  0.00  0.00
  YS02001622YS02001625    1.00   0.05  0.00  0.00  0.95  0.00  0.00  0.00  0.08  0.00
  YS02001625YS02001629    1.00   0.05  0.02  0.00  0.91  0.00  0.02  0.00  0.00  0.00
  YS02163301YS02001633    1.00   0.00  0.06  0.00  0.94  0.00  0.00  0.00  0.00  0.00
  YS02163601YS02164001    1.00   0.00  0.03  0.00  0.97  0.00  0.00  0.00  0.00  0.00
  YS02164001YS02001641    1.00   0.00  0.03  0.00  0.97  0.00  0.00  0.00  0.06  0.00
  YS02001641YS02001644    1.00   0.00  0.00  0.00  1.00  0.00  0.00  0.00  0.00  0.00
  YS02001647YS02001649    1.00   0.00  0.07  0.00  0.93  0.00  0.00  0.00  0.01  0.00
  YS02006553YS02006556    1.00   0.00  0.00  0.00  1.00  0.00  0.00  0.00  0.03  0.00
  YS02006556YS02006558    1.00   0.00  0.00  0.00  1.00  0.00  0.00  0.00  0.00  0.00
  YSB6556YSB1171          1.00   0.01  0.04  0.00  0.95  0.00  0.00  0.00  0.00  0.00
  YS02001907YS02006553    1.00   0.00  0.00  0.00  0.99  0.00  0.00  0.00  0.00  0.00
  YS02006558YS02006561    1.00   0.08  0.00  0.00  0.22  0.70  0.00  0.00  0.46  0.00
  YS02001633YS02163601    1.00   0.00  0.00  0.00  1.00  0.00  0.00  0.00  0.16  0.00
  YS02001644YS02001647    1.00   0.00  0.07  0.00  0.93  0.00  0.00  0.00  0.00  0.00
  YS02001745YS02001748    1.00   0.00  0.00  0.00  0.88  0.01  0.00  0.11  0.04  0.00
  YS02001748YS02001751    1.00   0.00  0.00  0.00  0.97  0.03  0.00  0.00  0.15  0.00
  YS02001751YS02001754    1.00   0.00  0.00  0.00  0.92  0.00  0.00  0.08  0.02  0.00
  YS02001754YS02001757    1.00   0.00  0.00  0.00  1.00  0.00  0.00  0.00  0.21  0.00
  YS02001882YS02001884    1.00   0.06  0.00  0.00  0.94  0.00  0.00  0.00  0.00  0.00
  YS02001884YS02001887    1.00   0.01  0.04  0.00  0.95  0.00  0.00  0.00  0.00  0.00
  YS02001890YS02001895    1.00   0.00  0.07  0.00  0.93  0.00  0.00  0.00  0.00  0.00
  YS02001895YS02001898    1.00   0.07  0.00  0.00  0.92  0.00  0.01  0.00  0.00  0.00
  YS02001898YS02001901    1.00   0.07  0.00  0.00  0.93  0.00  0.00  0.00  0.03  0.00
  YS02001901YS02001904    1.00   0.07  0.00  0.00  0.93  0.00  0.00  0.00  0.00  0.00
  YS02001904YS02001907    1.00   0.00  0.07  0.00  0.93  0.00  0.00  0.00  0.00  0.00
  YS02001887YS02001890    1.00   0.00  0.00  0.00  0.99  0.00  0.01  0.00  0.00  0.00
  YS02001652YS02001649    1.00   0.00  0.00  0.00  1.00  0.00  0.00  0.00  0.19  0.00
  YS02001655YS02001652    1.00   0.00  0.00  0.00  0.92  0.00  0.00  0.08  0.03  0.00
  YS02001658YS02001655    1.00   0.00  0.06  0.00  0.91  0.03  0.00  0.00  0.13  0.00
  YS02001661YS02001658    1.00   0.06  0.00  0.00  0.87  0.07  0.00  0.00  0.09  0.00
  YS02001664YS02001661    1.00   0.05  0.00  0.00  0.86  0.08  0.00  0.00  0.22  0.00
  YSB1154YSB6556          1.00   0.05  0.00  0.00  0.95  0.00  0.00  0.00  0.02  0.00
  YSB1174YSB1171          1.00   0.01  0.03  0.00  0.96  0.00  0.00  0.00  0.00  0.00
  YSB1171HS02004479       1.00   0.01  0.00  0.00  0.99  0.00  0.00  0.00  0.11  0.00
  HS02004881HS02006253    1.00   0.01  0.00  0.00  0.43  0.05  0.00  0.51  0.29  0.00
  YS02001793JiankangQianchi    1.00   0.00  0.00  0.00  0.97  0.03  0.00  0.00  0.25  0.00
  YS02001757CaochengTiaoxuchi    1.00   0.00  0.09  0.00  0.91  0.00  0.00  0.00  0.00  0.00
  WSF200WS02003060        1.00   0.00  0.06  0.00  0.25  0.69  0.00  0.00  0.37  0.00
  1                       1.00   0.00  0.00  0.00  0.00  1.00  0.00  0.00  0.24  0.00
  2                       1.00   0.89  0.00  0.00  0.00  0.11  0.00  0.00  0.03  0.00
  3                       1.00   0.64  0.00  0.00  0.00  0.36  0.00  0.00  0.40  0.00
  4                       1.00   1.00  0.00  0.00  0.00  0.00  0.00  0.00  0.00  0.00
  
  
  *************************
  Conduit Surcharge Summary
  *************************
  
  ----------------------------------------------------------------------------
                                                           Hours        Hours 
                         --------- Hours Full --------   Above Full   Capacity
  Conduit                Both Ends  Upstream  Dnstream   Normal Flow   Limited
  ----------------------------------------------------------------------------
  WS02006229WS02006228        1.03      1.07      1.03      2.07         1.03
  WS02006256WS02006235        4.63      4.63      6.87      1.77         0.01
  WS02006252WS02006251        0.25      0.25      0.70      0.58         0.01
  WS02006251WS02006249        0.01      0.01      0.01      0.25         0.01
  WS02006249WS02006248        0.01      0.01      0.01      1.70         0.01
  WS02006247WS02006245        0.01      0.01      0.01      2.42         0.01
  WS02006245WS02006243        0.01      0.01      0.01      0.08         0.01
  WS02006243WS02006242        0.01      0.01      0.01      0.01         0.01
  WS02006242WS02006240        0.01      0.01      0.10      0.74         0.01
  WS02006240WS02006239        0.01      0.01      0.06      0.23         0.01
  WS02006239WS02006238        0.26      0.26      0.39      0.29         0.01
  WS02006238WS02006235        0.38      0.38      0.45      0.01         0.01
  WS02006235WS02006234        0.24      0.24      0.33      4.37         0.01
  WS02006234WS02006232        0.33      0.33      0.82      0.01         0.01
  WS02006232WS02006231        0.24      0.24      0.82      0.01         0.01
  WS02006231WS02006230        0.13      0.13      0.30      4.76         0.02
  WS02006230WS02006229        1.29      1.72      1.29      5.35         1.24
  WS02006228WS02006109        1.05      1.21      1.05      3.04         1.05
  WS02006112WS02006115        0.01      0.01      0.85      0.01         0.01
  WS02006111WS02006112        0.01      0.01      2.21      0.01         0.01
  WS02006110WS02006113        0.01      0.01      1.11      0.01         0.01
  WS02006109WS02006110        0.80      0.80      1.21      0.80         0.01
  WS02004401WS02004402        0.01      0.01      0.04      0.01         0.01
  WS02004406WS02004407        0.01      0.01      0.16      0.01         0.01
  WS02004405WS02004406        0.16      0.20      0.16      0.83         0.16
  WS02004404WS02004405        0.20      0.50      0.20      5.03         0.20
  WS02004403WS02004404        0.05      0.05      0.50      0.01         0.01
  WS02004402WS02004403        0.04      0.04      0.05      0.01         0.01
  WS02003072WS02003073        0.01      0.01      0.01      1.30         0.01
  HS02004876HS02004881        0.01      0.01      0.01      0.17         0.01
  HS02004785HS02004788        0.01      0.01      0.01      0.10         0.01
  HS02004480HS02004478        0.01      0.01      0.01      0.52         0.01
  YS02001759YS02001757        5.54      5.54      5.62      0.01         0.01
  YS02001762YS02001759        5.52      5.52      5.54      0.01         0.01
  YS02001765YS02001762        5.49      5.49      5.52      0.01         0.01
  YS02001770YS02001767        5.47      5.47      5.47      0.26         0.65
  YS02001774YS02001770        5.46      5.46      5.51      0.01         0.01
  YS02001779YS02001774        5.30      5.30      5.51      0.01         0.01
  YS02001649YS02001757        5.52      5.52      5.62      0.01         0.01
  YS02001767YS02001765        5.47      5.47      5.49      0.01         0.01
  YS02006561YS02001783        0.92      0.92      1.65      0.01         0.01
  YS02001783YS02001784        1.65      1.65      1.68      1.27         1.25
  YS02001784YS02001785        1.65      1.68      1.65      2.20         1.65
  YS02001788YS02001790        1.63      1.63      5.20      0.01         0.01
  YS02001790YS02001791        5.20      5.20      5.38      0.76         0.75
  YS02001791YS02001793        5.38      5.38      5.43      0.01         0.01
  YS02001910YS02001907        1.23      1.23      1.67      0.01         0.01
  YS02001786YS02001788        1.63      1.65      1.63      1.82         1.63
  YS02001915YS02001910        1.03      1.03      1.23      0.01         0.01
  YS02001918YS02001915        0.79      0.79      1.03      0.01         0.01
  YS02001923YS02001920        0.63      0.63      0.83      0.01         0.01
  YS02001920YS02001918        0.79      0.79      0.83      0.01         0.01
  YS02001629YS02163301        5.45      5.45      5.46      0.01         0.01
  YS02001619YS02001622        5.17      5.17      5.20      0.01         0.01
  YS02001622YS02001625        5.20      5.20      5.43      0.01         0.01
  YS02001625YS02001629        5.18      5.18      5.43      0.01         0.01
  YS02163301YS02001633        5.46      5.46      5.49      0.01         0.01
  YS02163601YS02164001        5.49      5.49      5.53      0.01         0.01
  YS02164001YS02001641        5.49      5.49      5.50      0.01         0.02
  YS02001641YS02001644        5.50      5.50      5.50      1.47         1.39
  YS02001647YS02001649        5.41      5.41      5.52      0.01         0.01
  YS02006553YS02006556        1.44      1.44      1.75      0.01         0.01
  YS02006556YS02006558        1.55      1.55      1.82      0.01         0.01
  YS02001907YS02006553        2.24      2.24      2.47      0.01         0.01
  YS02006558YS02006561        1.13      1.40      1.13      2.09         1.13
  YS02001633YS02163601        5.49      5.49      5.53      0.01         0.01
  YS02001644YS02001647        5.41      5.41      5.50      0.01         0.01
  YS02001745YS02001748        0.01      0.01      5.05      0.01         0.01
  YS02001748YS02001751        5.08      5.08      5.17      0.01         0.01
  YS02001751YS02001754        5.17      5.17      5.30      0.01         0.01
  YS02001754YS02001757        5.39      5.39      5.62      0.01         0.01
  YS02001882YS02001884        1.04      1.04      1.07      0.01         0.01
  YS02001884YS02001887        1.13      1.13      1.16      0.01         0.01
  YS02001890YS02001895        1.02      1.02      1.25      0.01         0.01
  YS02001895YS02001898        1.00      1.00      1.02      0.01         0.01
  YS02001898YS02001901        1.03      1.03      1.12      0.01         0.01
  YS02001901YS02001904        1.10      1.10      1.12      0.01         0.01
  YS02001904YS02001907        1.10      1.10      1.76      0.01         0.01
  YS02001887YS02001890        1.19      1.19      1.22      0.07         0.01
  YS02001652YS02001649        5.42      5.42      5.52      0.01         0.01
  YS02001655YS02001652        5.19      5.19      5.37      0.01         0.01
  YS02001658YS02001655        5.07      5.07      5.19      0.01         0.01
  YS02001661YS02001658        0.19      0.19      5.07      0.01         0.01
  YS02001664YS02001661        0.01      0.01      0.92      0.01         0.01
  YS02001793JiankangQianchi        5.41      5.41      6.50      0.01         0.01
  YS02001757CaochengTiaoxuchi        4.90      4.90      5.62      0.01         0.01
  
  
  ***************
  Pumping Summary
  ***************
  
  ---------------------------------------------------------------------------------------------------------
                                                  Min       Avg       Max     Total     Power    % Time Off
                        Percent   Number of      Flow      Flow      Flow    Volume     Usage    Pump Curve
  Pump                 Utilized   Start-Ups       LPS       LPS       LPS  10^6 ltr     Kw-hr    Low   High
  ---------------------------------------------------------------------------------------------------------
  CC-Pump-1               25.52           3      0.00    137.62    200.00     0.960      0.82    0.0    0.0
  CC-Pump-2               38.29           7      0.00    120.00    200.00     1.260      1.74    0.0   13.7
  JK-Pump-1               21.28           5      0.00    157.99    299.95     0.725      2.92    0.0    0.0
  JK-Pump-2               23.40           4      0.00    178.99    300.00     1.080      6.95    0.0    0.0
  XR-Pump-1               68.07           9      0.00     53.62     95.00     1.055      5.65    0.0    0.0
  XR-Pump-2               21.26           5      0.00     55.89     95.00     0.313      1.40    0.0    0.0
  XR-Pump-3                8.52           2      0.00     46.44     95.00     0.114      0.51    0.0    0.0
  XR-Pump-4               40.41           8      0.00     60.45     95.00     0.684      3.68    0.0    0.0
  

  Analysis begun on:  Thu Jan  6 18:36:35 2022
  Analysis ended on:  Thu Jan  6 18:36:37 2022
  Total elapsed time: 00:00:02