
  EPA STORM WATER MANAGEMENT MODEL - VERSION 5.1 (Build 5.3.0.dev0)
  --------------------------------------------------------------

  WARNING 04: minimum elevation drop used for Conduit WS02004404WS02004405
  WARNING 03: negative offset ignored for Link YS02001904YS02001907
  
  *********************************************************
  NOTE: The summary statistics displayed in this report are
  based on results found at every computational time step,  
  not just on results from each reporting time step.
  *********************************************************
  
  ****************
  Analysis Options
  ****************
  Flow Units ............... LPS
  Process Models:
    Rainfall/Runoff ........ YES
    RDII ................... NO
    Snowmelt ............... NO
    Groundwater ............ NO
    Flow Routing ........... YES
    Ponding Allowed ........ NO
    Water Quality .......... NO
  Infiltration Method ...... HORTON
  Flow Routing Method ...... DYNWAVE
  Surcharge Method ......... EXTRAN
  Starting Date ............ 08/28/2015 08:00:00
  Ending Date .............. 08/28/2015 15:50:00
  Antecedent Dry Days ...... 8.0
  Report Time Step ......... 00:01:00
  Wet Time Step ............ 00:01:00
  Dry Time Step ............ 00:01:00
  Routing Time Step ........ 5.00 sec
  Variable Time Step ....... YES
  Maximum Trials ........... 8
  Number of Threads ........ 4
  Head Tolerance ........... 0.001500 m
  
  
  **************************        Volume         Depth
  Runoff Quantity Continuity     hectare-m            mm
  **************************     ---------       -------
  Total Precipitation ......         6.144        13.452
  Evaporation Loss .........         0.000         0.000
  Infiltration Loss ........         1.572         3.442
  Surface Runoff ...........         3.480         7.619
  Final Storage ............         1.093         2.393
  Continuity Error (%) .....        -0.016
  
  
  **************************        Volume        Volume
  Flow Routing Continuity        hectare-m      10^6 ltr
  **************************     ---------     ---------
  Dry Weather Inflow .......         0.616         6.165
  Wet Weather Inflow .......         3.479        34.789
  Groundwater Inflow .......         0.000         0.000
  RDII Inflow ..............         0.000         0.000
  External Inflow ..........         0.102         1.024
  External Outflow .........         0.751         7.509
  Flooding Loss ............         2.856        28.560
  Evaporation Loss .........         0.000         0.000
  Exfiltration Loss ........         0.000         0.000
  Initial Stored Volume ....         0.076         0.761
  Final Stored Volume ......         0.666         6.657
  Continuity Error (%) .....         0.028
  
  
  *************************
  Highest Continuity Errors
  *************************
  Node HS02004842 (15.27%)
  Node YS02001884 (12.21%)
  Node YSB1171 (2.79%)
  Node HS02004817 (2.78%)
  Node HS02004901 (2.06%)
  
  
  ***************************
  Time-Step Critical Elements
  ***************************
  Link WS02006252WS02006251 (51.28%)
  Link 3 (28.57%)
  Link WS02006280WS02006229 (6.39%)
  Link YS02006556YS02006558 (4.81%)
  Link WS02006238WS02006235 (3.15%)
  
  
  ********************************
  Highest Flow Instability Indexes
  ********************************
  Link YS02163601YS02164001 (48)
  Link YS02163301YS02001633 (47)
  Link YS02001629YS02163301 (46)
  Link YS02001619YS02001622 (44)
  Link YS02164001YS02001641 (43)
  
  
  *************************
  Routing Time Step Summary
  *************************
  Minimum Time Step           :     0.50 sec
  Average Time Step           :     1.27 sec
  Maximum Time Step           :     5.00 sec
  Percent in Steady State     :    -0.00
  Average Iterations per Step :     4.56
  Percent Not Converging      :    21.22
  
  
  ***************************
  Subcatchment Runoff Summary
  ***************************
  
  ------------------------------------------------------------------------------------------------------------------------------
                            Total      Total      Total      Total     Imperv       Perv      Total       Total     Peak  Runoff
                           Precip      Runon       Evap      Infil     Runoff     Runoff     Runoff      Runoff   Runoff   Coeff
  Subcatchment                 mm         mm         mm         mm         mm         mm         mm    10^6 ltr      LPS
  ------------------------------------------------------------------------------------------------------------------------------
  sub0                      13.45       0.00       0.00       0.89      11.25       0.05      11.30        0.01     3.67   0.840
  sub1                      13.45       0.00       0.00       1.45      10.71       0.03      10.74        0.07    24.31   0.799
  sub2                      13.45       0.00       0.00       4.95       7.56       0.02       7.58        0.07    22.93   0.564
  sub3                      13.45       0.00       0.00       4.96       7.52       0.02       7.54        0.17    51.30   0.560
  sub4                      13.45       0.00       0.00       1.46      10.54       0.02      10.56        0.22    61.94   0.785
  sub5                      13.45       0.00       0.00       0.91      11.19       0.03      11.22        0.13    43.21   0.834
  sub7                      13.45       0.00       0.00       1.17      10.98       0.04      11.03        0.04    13.69   0.820
  sub8                      13.45       0.00       0.00       1.17      10.97       0.04      11.01        0.07    25.15   0.819
  sub9                      13.45       0.00       0.00       1.17      10.97       0.04      11.01        0.05    18.81   0.818
  sub10                     13.45       0.00       0.00       1.04      11.08       0.03      11.11        0.12    42.29   0.826
  sub11                     13.45       0.00       0.00       1.04      11.10       0.04      11.14        0.13    46.68   0.828
  sub12                     13.45       0.00       0.00       1.69      10.51       0.06      10.58        0.09    35.94   0.786
  sub14                     13.45       0.00       0.00       1.17      10.97       0.04      11.01        0.10    37.02   0.818
  sub15                     13.45       0.00       0.00       4.00       8.43       0.04       8.47        0.15    51.03   0.630
  sub16                     13.45       0.00       0.00       4.38       8.09       0.06       8.15        0.09    32.58   0.606
  sub17                     13.45       0.00       0.00       4.25       8.21       0.06       8.27        0.07    26.73   0.615
  sub22                     13.45       0.00       0.00       5.74       6.88       0.04       6.92        0.44   159.06   0.514
  sub23                     13.45       0.00       0.00       4.93       7.60       0.05       7.65        0.36   133.95   0.569
  sub60                     13.45       0.00       0.00       1.61       8.73       0.00       8.74        2.65   387.96   0.649
  sub61                     13.45       0.00       0.00       2.28       8.88       0.00       8.88        2.74   483.52   0.660
  sub62                     13.45       0.00       0.00       1.07       9.65       0.00       9.66        2.97   496.42   0.718
  sub63                     13.45       0.00       0.00       3.90       7.77       0.00       7.77        2.35   446.68   0.578
  sub64                     13.45       0.00       0.00       2.01       8.38       0.00       8.38        2.55   368.35   0.623
  sub65                     13.45       0.00       0.00       1.75       8.52       0.00       8.52        2.62   373.60   0.634
  sub66                     13.45       0.00       0.00       3.90       7.19       0.00       7.19        2.21   337.96   0.535
  sub67                     13.45       0.00       0.00       1.07      10.19       0.01      10.19        3.15   622.58   0.758
  sub68                     13.45       0.00       0.00       1.88       9.34       0.01       9.34        2.87   531.38   0.694
  sub69                     13.45       0.00       0.00       2.01       9.68       0.01       9.69        2.26   503.32   0.720
  sub70                     13.45       9.89       0.00       7.67      12.93       0.26      13.20        3.02   423.72   0.565
  sub71                     13.45       0.00       0.00       1.07       9.40       0.00       9.40        2.22   347.35   0.699
  sub72                     13.45       0.00       0.00       0.94       7.49       0.00       7.50        1.53   163.23   0.557
  sub73                     13.45      12.84       0.00       8.67      14.26       0.27      14.53        3.41   375.92   0.552
  sub74                     13.45       0.00       0.00      10.09       2.88       0.00       2.89        1.15   273.25   0.215
  
  
  ******************
  Node Depth Summary
  ******************
  
  ---------------------------------------------------------------------------------
                                 Average  Maximum  Maximum  Time of Max    Reported
                                   Depth    Depth      HGL   Occurrence   Max Depth
  Node                 Type       Meters   Meters   Meters  days hr:min      Meters
  ---------------------------------------------------------------------------------
  WS02001211           JUNCTION     0.44     0.61     5.45     0  01:50        0.61
  WS02001212           JUNCTION     0.21     0.36     5.42     0  03:02        0.36
  WS02001213           JUNCTION     0.44     0.65     5.41     0  03:02        0.65
  WS02003069           JUNCTION     0.29     0.54     5.13     0  03:05        0.54
  WS02003072           JUNCTION     0.35     0.60     4.98     0  03:05        0.60
  WS02003073           JUNCTION     0.20     0.37     4.43     0  03:06        0.37
  WS02003060           JUNCTION     0.26     0.48     5.41     0  03:05        0.48
  WS02003066           JUNCTION     0.19     0.34     5.90     0  03:05        0.34
  WS02003059           JUNCTION     0.51     0.73     5.41     0  03:04        0.73
  WS02003067           JUNCTION     0.49     0.77     6.09     0  03:05        0.77
  WS02004401           JUNCTION     0.56     1.06     7.06     0  03:03        1.06
  WS02004402           JUNCTION     0.60     1.06     7.02     0  03:03        1.06
  WS02004403           JUNCTION     0.62     1.06     6.99     0  03:03        1.06
  WS02004404           JUNCTION     0.69     1.11     6.96     0  03:03        1.11
  WS02004406           JUNCTION     0.70     1.07     6.90     0  03:03        1.07
  WS02004409           JUNCTION     0.38     0.81     6.58     0  03:04        0.81
  WS02004410           JUNCTION     0.40     0.81     6.53     0  03:05        0.81
  WS02004411           JUNCTION     0.42     0.81     6.49     0  03:05        0.81
  WS02004412           JUNCTION     0.44     0.80     6.44     0  03:05        0.80
  WS02004413           JUNCTION     0.60     0.95     6.42     0  03:05        0.95
  WS02004405           JUNCTION     0.69     1.10     6.95     0  03:03        1.10
  WS02006109           JUNCTION     0.63     1.18     7.80     0  03:02        1.17
  WS02006110           JUNCTION     0.64     1.05     7.64     0  03:02        1.05
  WS02006111           JUNCTION     0.18     0.50     7.20     0  03:03        0.49
  WS02006112           JUNCTION     0.72     1.31     7.19     0  03:03        1.30
  WS02006113           JUNCTION     0.26     0.54     7.44     0  03:03        0.54
  WS02006115           JUNCTION     0.45     0.99     7.13     0  03:03        0.99
  WS02006116           JUNCTION     0.54     1.06     7.10     0  03:03        1.06
  WS02006230           JUNCTION     0.56     1.26     8.01     0  03:02        1.25
  WS02006231           JUNCTION     0.34     0.89     8.01     0  03:02        0.88
  WS02006232           JUNCTION     0.45     0.98     8.02     0  03:02        0.97
  WS02006234           JUNCTION     0.35     0.86     8.02     0  03:02        0.86
  WS02006235           JUNCTION     0.37     0.87     8.03     0  02:52        0.86
  WS02006238           JUNCTION     0.40     0.89     8.04     0  02:54        0.89
  WS02006240           JUNCTION     0.30     0.78     8.07     0  02:51        0.77
  WS02006242           JUNCTION     0.36     0.83     8.10     0  02:51        0.81
  WS02006243           JUNCTION     0.25     0.69     8.11     0  02:51        0.68
  WS02006245           JUNCTION     0.25     0.64     8.13     0  02:54        0.64
  WS02006247           JUNCTION     0.27     0.65     8.15     0  02:53        0.64
  WS02006248           JUNCTION     0.22     0.56     8.15     0  02:53        0.56
  WS02006249           JUNCTION     0.26     0.57     8.16     0  02:53        0.56
  WS02006239           JUNCTION     0.35     0.84     8.05     0  02:52        0.84
  WS02006251           JUNCTION     0.24     0.53     8.20     0  02:53        0.53
  WS02006252           JUNCTION     0.19     0.35     8.59     0  05:20        0.35
  WS02006253           JUNCTION     0.27     0.56     8.20     0  02:53        0.56
  WS02006256           JUNCTION     0.72     1.13     8.06     0  02:50        1.13
  WS02004138           JUNCTION     0.05     0.14     7.39     0  01:42        0.14
  WS02004407           JUNCTION     0.17     0.35     6.66     0  03:04        0.35
  WS02006228           JUNCTION     0.62     1.28     7.93     0  03:02        1.27
  WS02006229           JUNCTION     0.59     1.31     8.00     0  03:02        1.30
  WS02006280           JUNCTION     0.08     0.24     8.52     0  03:02        0.24
  WS02006284           JUNCTION     0.38     0.63     9.02     0  03:02        0.62
  WS02006287           JUNCTION     0.11     0.37     9.32     0  03:02        0.37
  WSF200               JUNCTION     0.16     0.36     5.59     0  03:05        0.36
  HS02004901           JUNCTION     0.14     0.35    10.17     0  03:01        0.35
  HS02004881           JUNCTION     0.01     0.05     9.08     0  03:01        0.05
  HS02004876           JUNCTION     0.05     0.15     9.18     0  03:01        0.15
  HS02004870           JUNCTION     0.02     0.09     9.37     0  03:01        0.09
  HS02004862           JUNCTION     0.02     0.10     9.49     0  03:01        0.10
  HS02004856           JUNCTION     0.08     0.15     9.57     0  03:01        0.15
  HS02004852           JUNCTION     0.01     0.07     9.58     0  03:02        0.07
  HS02004848           JUNCTION     0.01     0.06     9.67     0  03:01        0.06
  HS02004842           JUNCTION     0.34     0.40     9.67     0  03:01        0.40
  HS02004837           JUNCTION     0.03     0.09     9.67     0  03:01        0.09
  HS02004830           JUNCTION     0.04     0.10     9.57     0  03:01        0.10
  HS02004824           JUNCTION     0.03     0.11     9.51     0  03:02        0.11
  HS02004817           JUNCTION     0.45     0.67     9.52     0  03:02        0.67
  HS02004807           JUNCTION     0.14     0.34     9.51     0  03:02        0.34
  HS02004802           JUNCTION     0.17     0.38     9.50     0  03:02        0.38
  HS02004799           JUNCTION     0.14     0.43     9.65     0  03:01        0.43
  HS02004792           JUNCTION     0.04     0.20     9.72     0  03:01        0.19
  HS02004788           JUNCTION     0.03     0.14    10.04     0  03:02        0.14
  HS02004785           JUNCTION     0.06     0.23    10.13     0  03:02        0.23
  HS02004777           JUNCTION     0.16     0.37    10.17     0  03:01        0.37
  HS02004770           JUNCTION     0.13     0.34    10.17     0  03:01        0.34
  HS02004480           JUNCTION     0.10     0.35     9.59     0  03:01        0.35
  HS02004479           JUNCTION     0.13     0.39     9.60     0  03:01        0.39
  HS02004478           JUNCTION     0.07     0.26     9.48     0  03:01        0.26
  YS02001745           JUNCTION     0.70     0.92     8.44     0  03:24        0.92
  YS02001748           JUNCTION     1.08     1.36     8.44     0  03:24        1.35
  YS02001751           JUNCTION     1.25     1.56     8.44     0  03:20        1.55
  YS02001754           JUNCTION     1.50     1.84     8.44     0  03:24        1.82
  YS02001762           JUNCTION     1.69     2.05     8.45     0  03:22        2.02
  YS02001765           JUNCTION     1.65     1.99     8.44     0  03:18        1.98
  YS02001767           JUNCTION     1.61     1.94     8.43     0  03:15        1.93
  YS02001770           JUNCTION     1.61     1.92     8.42     0  03:21        1.92
  YS02001774           JUNCTION     1.67     1.98     8.40     0  03:19        1.97
  YS02001779           JUNCTION     1.42     1.68     8.37     0  02:50        1.68
  YS02001882           JUNCTION     0.62     1.64     8.35     0  02:51        1.62
  YS02001884           JUNCTION     0.71     1.73     8.35     0  02:51        1.72
  YS02001759           JUNCTION     1.72     2.08     8.44     0  03:08        2.07
  YS02001887           JUNCTION     0.79     1.81     8.35     0  03:00        1.80
  YS02001890           JUNCTION     0.82     1.81     8.32     0  02:50        1.81
  YS02001898           JUNCTION     0.59     1.57     8.30     0  02:50        1.56
  YS02001901           JUNCTION     0.71     1.68     8.29     0  02:51        1.67
  YS02001904           JUNCTION     0.68     1.64     8.27     0  02:50        1.63
  YS02001907           JUNCTION     1.01     1.96     8.25     0  02:50        1.96
  YS02001910           JUNCTION     0.80     1.79     8.30     0  02:52        1.78
  YS02001915           JUNCTION     0.61     1.61     8.33     0  02:52        1.58
  YS02001918           JUNCTION     0.35     1.30     8.36     0  02:52        1.28
  YS02001619           JUNCTION     1.22     1.61     8.54     0  02:40        1.48
  YS02001629           JUNCTION     1.56     1.85     8.40     0  02:40        1.84
  YS02001641           JUNCTION     1.65     1.93     8.37     0  03:04        1.93
  YS02001644           JUNCTION     1.66     1.92     8.35     0  02:48        1.92
  YS02001652           JUNCTION     1.51     2.13     8.72     0  02:40        1.88
  YS02001655           JUNCTION     1.28     2.20     9.05     0  02:40        1.66
  YS02001920           JUNCTION     0.45     1.38     8.39     0  02:52        1.37
  YS02001923           JUNCTION     0.28     1.15     8.41     0  02:52        1.13
  YS02001926           JUNCTION     0.31     0.98     8.42     0  02:52        0.98
  YS02001929           JUNCTION     0.18     0.76     8.45     0  02:52        0.70
  YS02001658           JUNCTION     1.02     2.30     9.44     0  02:40        1.94
  YS02001661           JUNCTION     0.81     2.17     9.58     0  02:54        1.18
  YS02001664           JUNCTION     0.36     0.57     8.49     0  04:06        0.56
  YS02001622           JUNCTION     1.24     1.62     8.52     0  02:40        1.50
  YS02001633           JUNCTION     1.65     1.96     8.41     0  02:43        1.94
  YS02001649           JUNCTION     1.70     2.05     8.44     0  02:51        2.05
  YS02001757           JUNCTION     1.82     2.18     8.45     0  03:22        2.17
  YS02001895           JUNCTION     0.59     1.57     8.31     0  03:05        1.56
  YS02001625           JUNCTION     1.51     1.78     8.38     0  02:39        1.78
  YS02163301           JUNCTION     1.59     1.90     8.41     0  02:41        1.88
  YS02163601           JUNCTION     1.70     2.00     8.39     0  02:43        1.98
  YS02164001           JUNCTION     1.64     1.93     8.38     0  02:43        1.91
  YS02001647           JUNCTION     1.49     1.81     8.42     0  02:54        1.79
  YSB1154              JUNCTION     0.27     0.54     9.60     0  03:01        0.54
  YSB6556              JUNCTION     0.16     0.43     9.60     0  03:02        0.43
  YSB1174              JUNCTION     0.22     0.49     9.60     0  03:01        0.49
  YSB1171              JUNCTION     0.42     0.69     9.60     0  03:01        0.69
  YS02006553           JUNCTION     1.01     1.97     8.25     0  03:00        1.96
  YS02006561           JUNCTION     0.38     1.10     7.76     0  02:50        1.08
  YS02006556           JUNCTION     0.98     1.93     8.24     0  03:00        1.93
  YS02006558           JUNCTION     1.02     1.98     8.25     0  03:00        1.96
  YS02001783           JUNCTION     0.70     1.49     7.63     0  02:50        1.47
  YS02001784           JUNCTION     0.73     1.43     7.50     0  02:50        1.41
  YS02001786           JUNCTION     0.70     1.29     7.32     0  02:50        1.26
  YS02001788           JUNCTION     0.68     1.14     7.12     0  02:50        1.13
  YS02001790           JUNCTION     0.92     1.38     7.02     0  02:21        1.29
  YS02001791           JUNCTION     1.01     1.30     6.77     0  02:21        1.27
  YS02001793           JUNCTION     1.52     2.07     6.90     0  02:18        1.80
  WS02004139           JUNCTION     0.38     0.55     5.46     0  01:50        0.55
  WSC                  OUTFALL      0.20     0.37     1.04     0  03:06        0.37
  3                    OUTFALL      0.03     0.13     6.13     0  02:50        0.12
  4                    OUTFALL      0.00     0.07     7.07     0  02:53        0.06
  5                    OUTFALL      0.00     0.00     5.00     0  00:00        0.00
  JK-storage           STORAGE      5.17     5.80     6.60     0  02:21        5.80
  CC-storage           STORAGE      1.08     1.42     8.42     0  03:22        1.42
  XR-storage           STORAGE      7.70     7.72     5.72     0  00:27        7.72
  
  
  *******************
  Node Inflow Summary
  *******************
  
  -------------------------------------------------------------------------------------------------
                                  Maximum  Maximum                  Lateral       Total        Flow
                                  Lateral    Total  Time of Max      Inflow      Inflow     Balance
                                   Inflow   Inflow   Occurrence      Volume      Volume       Error
  Node                 Type           LPS      LPS  days hr:min    10^6 ltr    10^6 ltr     Percent
  -------------------------------------------------------------------------------------------------
  WS02001211           JUNCTION      7.35   197.20     0  01:50       0.207        1.59       0.945
  WS02001212           JUNCTION      0.00   196.76     0  01:50           0        1.57       0.283
  WS02001213           JUNCTION      0.00   196.59     0  01:51           0        1.58       0.908
  WS02003069           JUNCTION      0.32   834.44     0  03:05     0.00902        6.71       0.229
  WS02003072           JUNCTION      0.00   834.19     0  03:06           0        6.69       0.317
  WS02003073           JUNCTION      1.82   836.16     0  03:06      0.0514        6.72       0.329
  WS02003060           JUNCTION     16.53   834.56     0  03:05       0.466        6.76       0.219
  WS02003066           JUNCTION      0.00   745.77     0  03:05           0        4.74       0.076
  WS02003059           JUNCTION      0.00   195.77     0  01:51           0        1.61       1.669
  WS02003067           JUNCTION      0.00   745.51     0  03:05           0        4.75       0.167
  WS02004401           JUNCTION      0.00   747.46     0  03:04           0        4.93       0.335
  WS02004402           JUNCTION      0.00   747.53     0  03:04           0        4.92       0.325
  WS02004403           JUNCTION      0.00   747.59     0  03:04           0         4.9       0.305
  WS02004404           JUNCTION      0.16   747.80     0  03:04     0.00457        4.89       0.239
  WS02004406           JUNCTION      0.00   747.87     0  03:04           0        4.86       0.586
  WS02004409           JUNCTION      0.00   747.74     0  03:04           0        4.83       0.242
  WS02004410           JUNCTION      0.00   746.83     0  03:04           0        4.82       0.290
  WS02004411           JUNCTION      0.00   746.11     0  03:04           0         4.8       0.310
  WS02004412           JUNCTION      0.00   745.66     0  03:05           0        4.79       0.349
  WS02004413           JUNCTION      0.00   745.48     0  03:05           0        4.77       0.539
  WS02004405           JUNCTION      0.04   747.85     0  03:04     0.00107        4.88       0.358
  WS02006109           JUNCTION      1.23   734.66     0  03:02      0.0347        4.95       0.274
  WS02006110           JUNCTION      0.00   734.55     0  03:02           0        4.93       0.278
  WS02006111           JUNCTION      0.00   732.64     0  03:03           0        4.91       0.042
  WS02006112           JUNCTION     26.73   747.45     0  03:03      0.0709        4.98       0.476
  WS02006113           JUNCTION      0.00   734.52     0  03:02           0        4.92       0.092
  WS02006115           JUNCTION      0.00   747.58     0  03:03           0        4.96       0.289
  WS02006116           JUNCTION      0.00   746.79     0  03:03           0        4.95       0.252
  WS02006230           JUNCTION     10.28   284.95     0  04:05        0.29        2.84       0.242
  WS02006231           JUNCTION      0.00   274.91     0  04:04           0        2.55       0.060
  WS02006232           JUNCTION      0.00   275.87     0  04:04           0        2.56       0.312
  WS02006234           JUNCTION      0.00   277.60     0  04:03           0        2.56      -0.093
  WS02006235           JUNCTION      0.00   278.82     0  04:03           0         2.6       0.326
  WS02006238           JUNCTION      0.00   199.20     0  05:02           0        1.79      -0.235
  WS02006240           JUNCTION      0.00   200.20     0  05:01           0        1.76       0.192
  WS02006242           JUNCTION      0.00   200.75     0  05:01           0        1.75       0.240
  WS02006243           JUNCTION      0.00   205.81     0  02:50           0        1.74      -0.110
  WS02006245           JUNCTION      0.00   224.37     0  02:50           0        1.75       0.697
  WS02006247           JUNCTION      0.00   243.60     0  02:50           0        1.76       0.105
  WS02006248           JUNCTION      0.00   258.52     0  02:50           0        1.75      -0.270
  WS02006249           JUNCTION      0.00   270.98     0  02:50           0        1.77       0.448
  WS02006239           JUNCTION      0.00   199.66     0  05:01           0        1.77      -0.526
  WS02006251           JUNCTION      0.08   280.07     0  02:50     0.00217        1.79      -0.044
  WS02006252           JUNCTION      0.00   200.00     0  04:50           0        1.36       0.011
  WS02006253           JUNCTION      3.67   134.78     0  03:01     0.00915       0.431       0.121
  WS02006256           JUNCTION      0.00   300.00     0  02:40           0        1.63       0.089
  WS02004138           JUNCTION      0.00   190.00     0  01:40           0        1.37      -0.078
  WS02004407           JUNCTION      0.00   747.91     0  03:04           0        4.83       0.102
  WS02006228           JUNCTION      0.00   733.42     0  03:02           0        4.92       0.193
  WS02006229           JUNCTION      0.00   733.02     0  03:02           0        4.93       0.229
  WS02006280           JUNCTION      0.00   611.98     0  03:02           0         2.1       0.003
  WS02006284           JUNCTION      0.10   611.08     0  03:02      0.0027         2.1       0.059
  WS02006287           JUNCTION      0.00   609.84     0  03:02           0         2.1       0.034
  WSF200               JUNCTION      0.00   745.88     0  03:05           0        4.73       0.065
  HS02004901           JUNCTION     32.58    32.58     0  03:01      0.0853      0.0856       2.107
  HS02004881           JUNCTION     13.69   131.68     0  03:01      0.0372       0.403       0.032
  HS02004876           JUNCTION     24.31   119.37     0  03:01      0.0714       0.367       0.153
  HS02004870           JUNCTION     25.15    96.63     0  03:01      0.0703       0.295       0.038
  HS02004862           JUNCTION     23.13    73.48     0  03:01      0.0763       0.225       0.078
  HS02004856           JUNCTION     18.81    51.87     0  03:01      0.0529        0.15       0.971
  HS02004852           JUNCTION      0.00    35.12     0  03:01           0      0.0975       0.061
  HS02004848           JUNCTION     51.30    51.30     0  03:01        0.17        0.17       0.030
  HS02004842           JUNCTION      0.00    15.11     0  03:01           0      0.0852      18.028
  HS02004837           JUNCTION     48.64    62.30     0  03:01       0.302       0.374       0.211
  HS02004830           JUNCTION      0.15    61.39     0  03:01     0.00423       0.364       0.340
  HS02004824           JUNCTION     61.99   121.74     0  03:01       0.222       0.584       0.093
  HS02004817           JUNCTION      0.60   118.00     0  03:02      0.0169       0.601       2.855
  HS02004807           JUNCTION     46.68   158.05     0  03:01       0.129       0.713       0.602
  HS02004802           JUNCTION      0.00   156.92     0  03:03           0       0.709       0.570
  HS02004799           JUNCTION     37.02   389.13     0  03:01       0.105        1.19       0.208
  HS02004792           JUNCTION    159.34   356.42     0  03:01       0.445        1.08       0.038
  HS02004788           JUNCTION     52.70   202.56     0  03:02       0.193       0.638       0.061
  HS02004785           JUNCTION      0.15   157.27     0  03:01     0.00423       0.447       0.111
  HS02004777           JUNCTION      0.03   160.01     0  03:01    0.000846       0.447       1.175
  HS02004770           JUNCTION    133.95   163.76     0  03:01       0.365       0.449       0.699
  HS02004480           JUNCTION      0.00   456.70     0  03:01           0         1.4       0.084
  HS02004479           JUNCTION      0.00    72.19     0  03:02           0       0.228       0.322
  HS02004478           JUNCTION      0.00   609.29     0  03:02           0         2.1       0.019
  YS02001745           JUNCTION    387.96   387.96     0  03:01        2.65        2.65       0.431
  YS02001748           JUNCTION      0.04   400.14     0  03:01     0.00127        2.64       0.884
  YS02001751           JUNCTION      0.01   400.25     0  03:01     0.00031        2.61       0.912
  YS02001754           JUNCTION      0.26   400.22     0  03:01     0.00733         2.6       0.962
  YS02001762           JUNCTION      0.00   357.27     0  02:52           0        1.78       1.190
  YS02001765           JUNCTION      0.00   357.41     0  02:52           0        1.78       1.378
  YS02001767           JUNCTION      0.54   357.45     0  02:52      0.0151        1.81       2.015
  YS02001770           JUNCTION    496.57   561.32     0  03:24        2.97        3.47       0.914
  YS02001774           JUNCTION      0.00   562.49     0  03:26           0        2.15       1.174
  YS02001779           JUNCTION      0.01   562.59     0  03:24    0.000141        2.13       0.728
  YS02001882           JUNCTION      0.00    25.98     0  02:46           0      0.0168      16.454
  YS02001884           JUNCTION      0.00    30.66     0  02:45           0      0.0516      13.904
  YS02001759           JUNCTION    483.56   716.40     0  02:53        2.74        3.99       0.580
  YS02001887           JUNCTION    623.03   623.14     0  03:01        3.16        3.19       0.275
  YS02001890           JUNCTION      0.00   622.98     0  03:01           0        3.14       0.301
  YS02001898           JUNCTION      0.00   517.33     0  03:01           0        3.09       0.112
  YS02001901           JUNCTION      0.00   517.27     0  03:01           0        3.09       0.234
  YS02001904           JUNCTION      0.00   517.16     0  03:00           0        3.08       0.211
  YS02001907           JUNCTION      0.00  1058.45     0  03:01           0        6.88       0.358
  YS02001910           JUNCTION      0.00   541.90     0  03:01           0        3.81       0.315
  YS02001915           JUNCTION    347.37   541.82     0  03:01        2.22        3.85       0.169
  YS02001918           JUNCTION      0.00   275.28     0  02:52           0        1.65       0.120
  YS02001619           JUNCTION    337.96   337.96     0  03:01        2.21        2.21       0.554
  YS02001629           JUNCTION      0.00   208.06     0  02:47           0        1.55       1.881
  YS02001641           JUNCTION      0.00   437.56     0  02:48           0        4.07       0.519
  YS02001644           JUNCTION    368.39  1316.92     0  03:24        2.55        10.7       0.255
  YS02001652           JUNCTION      0.00   480.33     0  03:01           0         2.3       1.022
  YS02001655           JUNCTION      0.15   479.72     0  03:01     0.00434        2.33       1.078
  YS02001920           JUNCTION      2.87   275.10     0  02:53      0.0809        1.64       0.192
  YS02001923           JUNCTION      0.04   258.54     0  02:53     0.00106        1.54       0.051
  YS02001926           JUNCTION      0.05   196.72     0  02:53     0.00147        1.53       0.221
  YS02001929           JUNCTION    163.23   163.23     0  03:01        1.53        1.53       0.039
  YS02001658           JUNCTION      0.00   630.80     0  02:40           0        2.35       1.024
  YS02001661           JUNCTION      0.00   713.78     0  02:53           0        2.65      -0.064
  YS02001664           JUNCTION    446.68   446.68     0  03:01        2.35        2.65       0.246
  YS02001622           JUNCTION      0.00   338.25     0  03:01           0        2.19       1.472
  YS02001633           JUNCTION    373.80   437.52     0  02:48        2.63        4.13       0.779
  YS02001649           JUNCTION      0.00   940.81     0  02:48           0        5.98       0.626
  YS02001757           JUNCTION      0.00  1827.58     0  02:50           0        8.12       1.148
  YS02001895           JUNCTION      0.00   517.17     0  03:04           0        3.09       0.165
  YS02001625           JUNCTION      0.00   338.22     0  03:01           0        2.16       1.817
  YS02163301           JUNCTION      0.00   208.02     0  02:47           0        1.53       1.598
  YS02163601           JUNCTION      0.11   437.49     0  02:48      0.0031         4.1       0.737
  YS02164001           JUNCTION      0.00   437.62     0  02:48           0        4.08       0.493
  YS02001647           JUNCTION      0.00   686.25     0  03:26           0        5.26       0.542
  YSB1154              JUNCTION     43.21    43.21     0  03:01       0.127       0.128       1.144
  YSB6556              JUNCTION      0.00    41.77     0  03:01           0       0.129       0.980
  YSB1174              JUNCTION     35.94    35.94     0  03:01      0.0924      0.0931       1.402
  YSB1171              JUNCTION      0.00    73.32     0  03:01           0       0.227       2.865
  YS02006553           JUNCTION      0.00   672.24     0  03:31           0        6.12       0.256
  YS02006561           JUNCTION      0.00   969.46     0  03:00           0        8.97       0.006
  YS02006556           JUNCTION      0.00   672.63     0  03:32           0        6.13       0.186
  YS02006558           JUNCTION    532.26   970.04     0  03:00         2.9           9       0.062
  YS02001783           JUNCTION      0.00   969.28     0  03:00           0        8.97       0.088
  YS02001784           JUNCTION      1.06   970.31     0  03:00      0.0299        8.99       0.127
  YS02001786           JUNCTION      0.06   970.32     0  03:00     0.00159        8.98       0.159
  YS02001788           JUNCTION      0.07   970.65     0  03:00       0.002        8.97       0.157
  YS02001790           JUNCTION      0.15   970.78     0  03:00     0.00437        8.96       0.189
  YS02001791           JUNCTION      0.00   970.78     0  03:00           0        8.94       0.163
  YS02001793           JUNCTION      0.00   971.06     0  03:00           0        8.93       0.194
  WS02004139           JUNCTION      0.32   190.32     0  01:42     0.00905        1.39       0.837
  WSC                  OUTFALL       0.00   836.56     0  03:06           0         6.7       0.000
  3                    OUTFALL       0.00   228.30     0  02:50           0         0.8       0.000
  4                    OUTFALL       0.00    43.15     0  02:53           0      0.0105       0.000
  5                    OUTFALL       0.00     0.00     0  00:00           0           0       0.000 ltr
  JK-storage           STORAGE       0.00   970.86     0  03:00           0        9.06       0.228
  CC-storage           STORAGE       0.00  1827.42     0  02:50           0        5.47       1.208
  XR-storage           STORAGE     849.17   849.17     0  03:01        10.2        10.8      -0.000
  
  
  **********************
  Node Surcharge Summary
  **********************
  
  Surcharging occurs when water rises above the top of the highest conduit.
  ---------------------------------------------------------------------
                                               Max. Height   Min. Depth
                                   Hours       Above Crown    Below Rim
  Node                 Type      Surcharged         Meters       Meters
  ---------------------------------------------------------------------
  WS02004401           JUNCTION        0.22          0.055        1.605
  WS02004402           JUNCTION        0.26          0.063        1.677
  WS02004403           JUNCTION        0.26          0.058        1.972
  WS02004404           JUNCTION        0.39          0.115        2.665
  WS02004406           JUNCTION        0.34          0.075        2.375
  WS02004405           JUNCTION        0.37          0.098        2.702
  WS02006109           JUNCTION        0.79          0.360        1.460
  WS02006110           JUNCTION        0.49          0.141        1.709
  WS02006112           JUNCTION        0.60          0.307        1.373
  WS02006230           JUNCTION        0.35          0.181        1.389
  WS02006231           JUNCTION        0.36          0.181        1.349
  WS02006232           JUNCTION        0.50          0.283        1.197
  WS02006234           JUNCTION        0.36          0.142        1.098
  WS02006235           JUNCTION        0.38          0.160        1.130
  WS02006238           JUNCTION        0.40          0.174        1.256
  WS02006240           JUNCTION        0.27          0.066        1.324
  WS02006242           JUNCTION        0.29          0.101        0.719
  WS02006239           JUNCTION        0.32          0.102        1.188
  WS02006228           JUNCTION        0.78          0.448        1.752
  YS02001748           JUNCTION        5.06          0.281        0.909
  YS02001751           JUNCTION        5.20          0.564        0.636
  YS02001754           JUNCTION        5.37          0.785        0.365
  YS02001762           JUNCTION        5.52          1.045        0.105
  YS02001765           JUNCTION        5.49          0.988        0.112
  YS02001767           JUNCTION        5.47          0.945        0.085
  YS02001770           JUNCTION        5.46          0.892        0.028
  YS02001774           JUNCTION        5.51          0.983        0.067
  YS02001779           JUNCTION        5.36          0.680        0.000
  YS02001882           JUNCTION        1.04          0.635        0.195
  YS02001884           JUNCTION        1.07          0.672        0.198
  YS02001759           JUNCTION        5.54          1.078        0.132
  YS02001887           JUNCTION        1.16          0.759        0.191
  YS02001890           JUNCTION        1.19          0.760        0.000
  YS02001898           JUNCTION        1.00          0.536        0.204
  YS02001901           JUNCTION        1.12          0.678        0.192
  YS02001904           JUNCTION        1.10          0.640        0.210
  YS02001907           JUNCTION        1.71          0.950        0.000
  YS02001910           JUNCTION        1.24          0.790        0.310
  YS02001915           JUNCTION        1.03          0.608        0.392
  YS02001918           JUNCTION        0.79          0.298        0.512
  YS02001619           JUNCTION        5.20          0.610        0.000
  YS02001629           JUNCTION        5.21          0.470        0.000
  YS02001641           JUNCTION        5.50          0.935        0.165
  YS02001644           JUNCTION        5.50          0.920        0.000
  YS02001652           JUNCTION        5.40          1.095        0.035
  YS02001655           JUNCTION        5.22          1.200        0.000
  YS02001920           JUNCTION        0.83          0.384        0.756
  YS02001658           JUNCTION        5.09          1.300        0.000
  YS02001661           JUNCTION        0.19          1.104        0.286
  YS02001622           JUNCTION        5.23          0.620        0.000
  YS02001633           JUNCTION        5.49          0.938        0.122
  YS02001649           JUNCTION        5.52          1.050        0.000
  YS02001757           JUNCTION        5.62          1.184        0.026
  YS02001895           JUNCTION        1.02          0.567        0.183
  YS02001625           JUNCTION        5.43          0.780        0.000
  YS02163301           JUNCTION        5.46          0.898        0.132
  YS02163601           JUNCTION        5.52          0.997        0.083
  YS02164001           JUNCTION        5.49          0.927        0.173
  YS02001647           JUNCTION        5.42          0.806        0.094
  YS02006553           JUNCTION        1.78          0.970        0.220
  YS02006561           JUNCTION        0.92          0.295        0.855
  YS02006556           JUNCTION        1.44          0.891        0.459
  YS02006558           JUNCTION        1.40          0.880        0.520
  YS02001783           JUNCTION        1.62          0.690        0.910
  YS02001784           JUNCTION        1.67          0.635        0.855
  YS02001786           JUNCTION        1.63          0.487        0.943
  YS02001788           JUNCTION        1.62          0.342        1.138
  YS02001790           JUNCTION        5.22          0.578        0.579
  YS02001791           JUNCTION        5.35          0.497        1.423
  YS02001793           JUNCTION        5.53          1.070        1.530
  
  
  *********************
  Node Flooding Summary
  *********************
  
  Flooding refers to all water that overflows a node, whether it ponds or not.
  --------------------------------------------------------------------------
                                                             Total   Maximum
                                 Maximum   Time of Max       Flood    Ponded
                        Hours       Rate    Occurrence      Volume     Depth
  Node                 Flooded       LPS   days hr:min    10^6 ltr    Meters
  --------------------------------------------------------------------------
  YS02001779              2.90    562.31      0  03:24       2.109     0.000
  YS02001890              0.24    106.39      0  03:01       0.038     0.000
  YS02001907              0.66    619.84      0  03:01       0.744     0.000
  YS02001619              0.01     19.21      0  02:41       0.000     0.000
  YS02001629              0.01     27.33      0  02:41       0.000     0.000
  YS02001644              5.02   1316.81      0  03:24       9.457     0.000
  YS02001655              0.01     87.81      0  02:40       0.000     0.000
  YS02001658              0.01    304.32      0  02:40       0.000     0.000
  YS02001622              0.01     42.18      0  02:40       0.000     0.000
  YS02001649              0.06     44.04      0  02:55       0.002     0.000
  YS02001625              1.16    318.47      0  03:01       0.569     0.000
  JK-storage              5.06    969.57      0  03:00       7.128     0.000
  XR-storage              7.38    763.63      0  03:01       8.513     0.000
  
  
  **********************
  Storage Volume Summary
  **********************
  
  --------------------------------------------------------------------------------------------------
                         Average     Avg  Evap Exfil       Maximum     Max    Time of Max    Maximum
                          Volume    Pcnt  Pcnt  Pcnt        Volume    Pcnt     Occurrence    Outflow
  Storage Unit           1000 m3    Full  Loss  Loss       1000 m3    Full    days hr:min        LPS
  --------------------------------------------------------------------------------------------------
  JK-storage               0.260      89     0     0         0.291     100       0  02:21     300.00
  CC-storage               3.009      19     0     0         3.969      25       0  03:22     201.73
  XR-storage               0.924     100     0     0         0.926     100       0  00:27     190.00
  
  
  ***********************
  Outfall Loading Summary
  ***********************
  
  -----------------------------------------------------------
                         Flow       Avg       Max       Total
                         Freq      Flow      Flow      Volume
  Outfall Node           Pcnt       LPS       LPS    10^6 ltr
  -----------------------------------------------------------
  WSC                  100.00    287.77    836.56       6.698
  3                     37.38    131.28    228.30       0.800
  4                      2.96     21.74     43.15       0.011
  5                      0.00      0.00      0.00       0.000
  -----------------------------------------------------------
  System                35.08    440.80   1041.62       7.509
  
  
  ********************
  Link Flow Summary
  ********************
  
  -----------------------------------------------------------------------------
                                 Maximum  Time of Max   Maximum    Max/    Max/
                                  |Flow|   Occurrence   |Veloc|    Full    Full
  Link                 Type          LPS  days hr:min     m/sec    Flow   Depth
  -----------------------------------------------------------------------------
  WS02003066WSF200     CONDUIT    745.88     0  03:05      3.03    0.13    0.27
  WS02006287WS02006284 CONDUIT    610.98     0  03:02      2.31    0.28    0.37
  WS02006284WS02006280 CONDUIT    611.98     0  03:02      2.55    0.26    0.35
  WS02006280WS02006229 CONDUIT    612.11     0  03:02      4.12    0.13    0.24
  WS02006229WS02006228 CONDUIT    733.42     0  03:02      1.46    2.43    1.00
  WS02006256WS02006235 CONDUIT    149.99     0  00:35      2.14    1.59    1.00
  WS02006253WS02006251 CONDUIT    136.34     0  03:01      0.59    0.41    0.77
  WS02006252WS02006251 CONDUIT    200.34     0  05:20      1.97    0.74    0.76
  WS02006251WS02006249 CONDUIT    270.98     0  02:50      0.97    0.78    0.78
  WS02006249WS02006248 CONDUIT    258.52     0  02:50      1.01    1.42    0.79
  WS02006248WS02006247 CONDUIT    243.60     0  02:50      0.99    0.53    0.85
  WS02006247WS02006245 CONDUIT    224.37     0  02:50      0.96    1.78    0.90
  WS02006245WS02006243 CONDUIT    205.81     0  02:50      1.05    0.61    0.94
  WS02006243WS02006242 CONDUIT    200.75     0  05:01      0.92    0.43    0.99
  WS02006242WS02006240 CONDUIT    200.20     0  05:01      0.82    0.80    1.00
  WS02006240WS02006239 CONDUIT    199.66     0  05:01      0.97    0.63    1.00
  WS02006239WS02006238 CONDUIT    199.20     0  05:02      0.81    0.64    1.00
  WS02006238WS02006235 CONDUIT    199.00     0  05:02      0.77    0.44    1.00
  WS02006235WS02006234 CONDUIT    277.60     0  04:03      0.95    2.93    1.00
  WS02006234WS02006232 CONDUIT    275.87     0  04:04      0.84    0.56    1.00
  WS02006232WS02006231 CONDUIT    274.91     0  04:04      0.88    0.58    1.00
  WS02006231WS02006230 CONDUIT    274.67     0  04:05      1.23    4.17    1.00
  WS02006230WS02006229 CONDUIT    284.64     0  04:05      0.76    6.33    1.00
  WS02006228WS02006109 CONDUIT    733.43     0  03:02      1.46    3.20    1.00
  WS02006116WS02004401 CONDUIT    747.46     0  03:04      0.95    1.03    1.00
  WS02006115WS02006116 CONDUIT    746.79     0  03:03      0.95    0.96    1.00
  WS02006113WS02006111 CONDUIT    732.64     0  03:03      2.61    0.88    0.65
  WS02006112WS02006115 CONDUIT    747.58     0  03:03      0.95    0.44    0.99
  WS02006111WS02006112 CONDUIT    729.24     0  03:03      1.72    0.35    0.80
  WS02006110WS02006113 CONDUIT    734.52     0  03:02      1.63    0.67    0.84
  WS02006109WS02006110 CONDUIT    734.55     0  03:02      1.46    1.41    1.00
  WS02004411WS02004412 CONDUIT    745.66     0  03:05      1.10    1.06    0.81
  WS02004401WS02004402 CONDUIT    747.53     0  03:04      0.95    0.90    1.00
  WS02004413WS02003067 CONDUIT    745.51     0  03:05      1.34    0.32    0.67
  WS02004412WS02004413 CONDUIT    745.48     0  03:05      1.02    0.50    0.88
  WS02004410WS02004411 CONDUIT    746.11     0  03:04      1.09    1.02    0.81
  WS02004409WS02004410 CONDUIT    746.83     0  03:04      1.09    0.97    0.81
  WS02004407WS02004409 CONDUIT    747.74     0  03:04      1.58    0.26    0.58
  WS02004406WS02004407 CONDUIT    747.91     0  03:04      1.32    0.33    0.68
  WS02004405WS02004406 CONDUIT    747.87     0  03:04      0.95    1.48    1.00
  WS02004404WS02004405 CONDUIT    747.81     0  03:04      0.95    7.33    1.00
  WS02004403WS02004404 CONDUIT    747.64     0  03:04      0.95    0.54    1.00
  WS02004402WS02004403 CONDUIT    747.59     0  03:04      0.95    1.07    1.00
  WS02004139WS02001211 CONDUIT    189.86     0  01:50      0.41    0.24    0.44
  WS02004138WS02004139 CONDUIT    190.00     0  01:42      1.06    0.04    0.32
  WS02003067WS02003066 CONDUIT    745.77     0  03:05      1.45    0.24    0.46
  WS02001213WS02003059 CONDUIT    195.77     0  01:51      0.46    0.32    0.68
  WS02001212WS02001213 CONDUIT    196.59     0  01:51      1.03    0.30    0.34
  WS02001211WS02001212 CONDUIT    196.76     0  01:50      0.54    0.15    0.47
  WS02003072WS02003073 CONDUIT    834.33     0  03:06      1.66    1.80    0.46
  WS02003069WS02003072 CONDUIT    834.19     0  03:06      1.56    0.40    0.48
  WS02003060WS02003069 CONDUIT    834.12     0  03:05      1.81    0.33    0.43
  WS02003059WS02003060 CONDUIT    194.57     0  01:52      0.64    0.13    0.60
  HS02004901HS02004770 CONDUIT     32.25     0  03:01      0.09    0.12    0.50
  HS02004876HS02004881 CONDUIT    119.33     0  03:01      1.17    1.27    0.15
  HS02004870HS02004876 CONDUIT     96.14     0  03:01      0.79    0.06    0.17
  HS02004842HS02004848 CONDUIT     15.11     0  03:01      0.07    0.01    0.33
  HS02004837HS02004842 CONDUIT     16.10     0  03:03      0.42    0.01    0.34
  HS02004830HS02004837 CONDUIT     61.24     0  03:01      0.66    0.06    0.13
  HS02004824HS02004830 CONDUIT     60.79     0  03:01      0.63    0.08    0.15
  HS02004817HS02004824 CONDUIT    117.40     0  03:02      0.30    0.05    0.56
  HS02004770HS02004777 CONDUIT    159.98     0  03:01      0.45    0.29    0.51
  HS02004799HS02004480 CONDUIT    387.40     0  03:01      1.00    0.49    0.56
  HS02004792HS02004799 CONDUIT    353.10     0  03:01      1.12    0.22    0.45
  HS02004788HS02004792 CONDUIT    202.13     0  03:02      1.22    0.13    0.24
  HS02004785HS02004788 CONDUIT    156.68     0  03:02      0.85    1.18    0.26
  HS02004777HS02004785 CONDUIT    157.12     0  03:01      0.53    0.19    0.42
  HS02004480HS02004478 CONDUIT    456.75     0  03:01      1.47    1.92    0.44
  HS02004479HS02004480 CONDUIT     74.08     0  03:02      0.22    0.07    0.53
  HS02004862HS02004870 CONDUIT     73.11     0  03:01      0.77    0.08    0.14
  HS02004848HS02004852 CONDUIT     35.12     0  03:01      0.52    0.04    0.10
  HS02004856HS02004862 CONDUIT     51.23     0  03:01      0.58    0.05    0.13
  HS02004852HS02004856 CONDUIT     35.03     0  03:02      0.32    0.04    0.16
  HS02004802HS02004478 CONDUIT    160.68     0  03:04      0.54    0.14    0.45
  HS02004478WS02006287 CONDUIT    609.84     0  03:02      2.03    0.17    0.33
  HS02004817HS02004807 CONDUIT    120.82     0  03:04      0.24    0.07    0.73
  HS02004807HS02004802 CONDUIT    156.92     0  03:03      0.45    0.30    0.51
  YS02001759YS02001757 CONDUIT    716.22     0  02:53      0.91    0.51    1.00
  YS02001762YS02001759 CONDUIT    357.30     0  02:52      0.45    0.41    1.00
  YS02001765YS02001762 CONDUIT    357.27     0  02:52      0.45    0.33    1.00
  YS02001770YS02001767 CONDUIT    356.91     0  02:52      0.45    1.41    1.00
  YS02001774YS02001770 CONDUIT    562.49     0  03:26      0.72    0.36    1.00
  YS02001779YS02001774 CONDUIT    562.59     0  03:24      0.72    0.28    1.00
  YS02001649YS02001757 CONDUIT    940.99     0  02:48      1.20    0.57    1.00
  YS02001767YS02001765 CONDUIT    357.41     0  02:52      0.46    0.45    1.00
  YS02006561YS02001783 CONDUIT    969.28     0  03:00      1.93    0.50    1.00
  YS02001783YS02001784 CONDUIT    969.25     0  03:00      1.93    1.34    1.00
  YS02001784YS02001785 CONDUIT    970.26     0  03:00      1.93    2.26    1.00
  YS02001788YS02001790 CONDUIT    970.62     0  03:00      1.93    0.72    1.00
  YS02001790YS02001791 CONDUIT    970.78     0  03:00      2.26    1.06    1.00
  YS02001791YS02001793 CONDUIT    971.06     0  03:00      4.32    0.42    1.00
  YS02001910YS02001907 CONDUIT    541.91     0  03:01      0.69    0.31    1.00
  YS02001786YS02001788 CONDUIT    970.58     0  03:00      1.93    1.87    1.00
  YS02001915YS02001910 CONDUIT    541.90     0  03:01      0.69    0.27    1.00
  YS02001918YS02001915 CONDUIT    275.62     0  02:53      0.44    0.15    1.00
  YS02001923YS02001920 CONDUIT    272.23     0  02:53      0.71    0.12    1.00
  YS02001926YS02001923 CONDUIT    258.51     0  02:53      0.82    0.37    0.95
  YS02001929YS02001926 CONDUIT    196.67     0  02:53      0.87    0.09    0.86
  YS02001920YS02001918 CONDUIT    275.28     0  02:52      0.70    0.27    1.00
  YS02001629YS02163301 CONDUIT    208.02     0  02:47      0.26    0.26    1.00
  YS02001619YS02001622 CONDUIT    338.25     0  03:01      0.60    0.50    1.00
  YS02001622YS02001625 CONDUIT    338.22     0  03:01      0.43    0.18    1.00
  YS02001625YS02001629 CONDUIT    208.06     0  02:47      0.26    0.10    1.00
  YS02163301YS02001633 CONDUIT    208.08     0  02:47      0.26    0.20    1.00
  YS02163601YS02164001 CONDUIT    437.62     0  02:48      0.56    0.39    1.00
  YS02164001YS02001641 CONDUIT    437.56     0  02:48      0.56    0.60    1.00
  YS02001641YS02001644 CONDUIT    437.55     0  02:48      0.56    1.41    1.00
  YS02001647YS02001649 CONDUIT    686.25     0  03:26      0.87    0.36    1.00
  YS02006553YS02006556 CONDUIT    672.63     0  03:32      0.86    0.58    1.00
  YS02006556YS02006558 CONDUIT    672.80     0  03:32      0.86    0.53    1.00
  YSB6556YSB1171       CONDUIT     41.34     0  03:02      0.13    0.04    0.80
  YS02001907YS02006553 CONDUIT    672.24     0  03:31      0.75    0.79    1.00
  YS02006558YS02006561 CONDUIT    969.46     0  03:00      3.43    2.14    1.00
  YS02001633YS02163601 CONDUIT    437.38     0  02:48      0.56    0.46    1.00
  YS02001644YS02001647 CONDUIT    686.00     0  03:26      0.87    0.40    1.00
  YS02001745YS02001748 CONDUIT    400.09     0  03:01      1.48    0.15    0.96
  YS02001748YS02001751 CONDUIT    400.24     0  03:01      1.03    0.20    1.00
  YS02001751YS02001754 CONDUIT    399.96     0  03:01      0.84    0.19    1.00
  YS02001754YS02001757 CONDUIT    400.05     0  03:01      0.51    0.16    1.00
  YS02001882YS02001884 CONDUIT     25.98     0  02:46      0.08    0.03    1.00
  YS02001884YS02001887 CONDUIT     30.66     0  02:45      0.05    0.04    1.00
  YS02001890YS02001895 CONDUIT    517.17     0  03:04      0.66    0.24    1.00
  YS02001895YS02001898 CONDUIT    517.33     0  03:01      0.66    0.90    1.00
  YS02001898YS02001901 CONDUIT    517.27     0  03:01      0.66    0.33    1.00
  YS02001901YS02001904 CONDUIT    517.16     0  03:00      0.66    0.80    1.00
  YS02001904YS02001907 CONDUIT    517.16     0  03:01      0.66    0.18    1.00
  YS02001887YS02001890 CONDUIT    622.98     0  03:01      0.79    1.07    1.00
  YS02001652YS02001649 CONDUIT    481.21     0  03:01      0.61    0.24    1.00
  YS02001655YS02001652 CONDUIT    480.33     0  03:01      0.89    0.23    1.00
  YS02001658YS02001655 CONDUIT    479.56     0  03:01      1.18    0.20    1.00
  YS02001661YS02001658 CONDUIT    630.80     0  02:40      1.56    0.25    1.00
  YS02001664YS02001661 CONDUIT    713.78     0  02:53      1.48    0.22    0.75
  YSB1154YSB6556       CONDUIT     41.77     0  03:01      0.19    0.08    0.69
  YSB1174YSB1171       CONDUIT     34.48     0  03:01      0.10    0.05    0.81
  YSB1171HS02004479    CONDUIT     72.19     0  03:02      0.54    0.05    0.65
  HS02004881HS02006253 CONDUIT    131.62     0  03:01      2.17    0.03    0.19
  YS02001793JiankangQianchi CONDUIT    970.86     0  03:00      1.24    0.08    1.00
  YS02001757CaochengTiaoxuchi CONDUIT   1827.42     0  02:50      2.45    0.80    1.00
  WSF200WS02003060     CONDUIT    746.52     0  03:06      2.18    0.17    0.35
  1                    CONDUIT    836.56     0  03:06      3.17    0.29    0.37
  2                    CONDUIT     43.15     0  02:53      3.81    0.10    0.22
  3                    CONDUIT    228.30     0  02:50      8.12    0.36    0.42
  4                    CONDUIT      0.00     0  00:00      0.00    0.00    0.00
  CC-Pump-1            PUMP       199.95     0  06:00              1.00
  CC-Pump-2            PUMP       200.00     0  05:20              1.00
  JK-Pump-1            PUMP       300.00     0  03:10              1.00
  JK-Pump-2            PUMP       300.00     0  03:50              1.00
  XR-Pump-1            PUMP        95.00     0  01:40              1.00
  XR-Pump-2            PUMP        94.99     0  00:40              1.00
  XR-Pump-3            PUMP         0.00     0  00:00              0.00
  XR-Pump-4            PUMP        95.00     0  05:50              1.00
  
  
  ***************************
  Flow Classification Summary
  ***************************
  
  -------------------------------------------------------------------------------------
                      Adjusted    ---------- Fraction of Time in Flow Class ---------- 
                       /Actual         Up    Down  Sub   Sup   Up    Down  Norm  Inlet 
  Conduit               Length    Dry  Dry   Dry   Crit  Crit  Crit  Crit  Ltd   Ctrl  
  -------------------------------------------------------------------------------------
  WS02003066WSF200        1.00   0.07  0.00  0.00  0.00  0.93  0.00  0.00  0.75  0.00
  WS02006287WS02006284    1.00   0.05  0.02  0.00  0.52  0.41  0.00  0.00  0.67  0.00
  WS02006284WS02006280    1.00   0.06  0.00  0.00  0.00  0.00  0.00  0.94  0.00  0.00
  WS02006280WS02006229    1.00   0.06  0.00  0.00  0.00  0.00  0.00  0.94  0.00  0.00
  WS02006229WS02006228    1.00   0.00  0.00  0.00  1.00  0.00  0.00  0.00  0.00  0.00
  WS02006256WS02006235    1.00   0.02  0.00  0.00  0.98  0.00  0.00  0.00  0.00  0.00
  WS02006253WS02006251    1.00   0.01  0.04  0.00  0.94  0.00  0.00  0.00  0.00  0.00
  WS02006252WS02006251    1.00   0.11  0.00  0.00  0.00  0.00  0.89  0.00  0.00  0.00
  WS02006251WS02006249    1.00   0.00  0.00  0.00  1.00  0.00  0.00  0.00  0.43  0.00
  WS02006249WS02006248    1.00   0.00  0.00  0.00  0.73  0.00  0.26  0.00  0.00  0.00
  WS02006248WS02006247    1.00   0.01  0.00  0.00  0.98  0.00  0.00  0.02  0.34  0.00
  WS02006247WS02006245    1.00   0.01  0.00  0.00  0.94  0.00  0.00  0.06  0.00  0.00
  WS02006245WS02006243    1.00   0.01  0.00  0.00  0.87  0.00  0.00  0.13  0.03  0.00
  WS02006243WS02006242    1.00   0.01  0.00  0.00  0.98  0.00  0.00  0.01  0.39  0.00
  WS02006242WS02006240    1.00   0.01  0.01  0.00  0.96  0.00  0.02  0.00  0.00  0.00
  WS02006240WS02006239    1.00   0.02  0.00  0.00  0.87  0.00  0.00  0.11  0.02  0.00
  WS02006239WS02006238    1.00   0.02  0.00  0.00  0.98  0.00  0.00  0.00  0.09  0.00
  WS02006238WS02006235    1.00   0.02  0.00  0.00  0.98  0.00  0.00  0.00  0.00  0.00
  WS02006235WS02006234    1.00   0.02  0.00  0.00  0.92  0.00  0.07  0.00  0.00  0.00
  WS02006234WS02006232    1.00   0.02  0.00  0.00  0.98  0.00  0.00  0.00  0.06  0.00
  WS02006232WS02006231    1.00   0.02  0.00  0.00  0.98  0.00  0.00  0.00  0.00  0.00
  WS02006231WS02006230    1.00   0.02  0.00  0.00  0.27  0.00  0.72  0.00  0.00  0.00
  WS02006230WS02006229    1.00   0.00  0.00  0.00  0.99  0.00  0.00  0.01  0.00  0.00
  WS02006228WS02006109    1.00   0.00  0.00  0.00  1.00  0.00  0.00  0.00  0.00  0.00
  WS02006116WS02004401    1.00   0.04  0.00  0.00  0.96  0.00  0.00  0.00  0.00  0.00
  WS02006115WS02006116    1.00   0.04  0.00  0.00  0.95  0.00  0.00  0.01  0.00  0.00
  WS02006113WS02006111    1.00   0.02  0.00  0.00  0.01  0.97  0.00  0.00  0.18  0.00
  WS02006112WS02006115    1.00   0.02  0.02  0.00  0.95  0.00  0.01  0.00  0.00  0.00
  WS02006111WS02006112    1.00   0.02  0.00  0.00  0.96  0.01  0.00  0.01  0.87  0.00
  WS02006110WS02006113    1.00   0.00  0.01  0.00  0.98  0.00  0.00  0.00  0.00  0.00
  WS02006109WS02006110    1.00   0.00  0.00  0.00  0.99  0.00  0.00  0.00  0.00  0.00
  WS02004411WS02004412    1.00   0.06  0.00  0.00  0.94  0.00  0.00  0.00  0.00  0.00
  WS02004401WS02004402    1.00   0.04  0.00  0.00  0.96  0.00  0.00  0.00  0.00  0.00
  WS02004413WS02003067    1.00   0.06  0.01  0.00  0.00  0.00  0.94  0.00  0.00  0.00
  WS02004412WS02004413    1.00   0.06  0.00  0.00  0.94  0.00  0.00  0.00  0.01  0.00
  WS02004410WS02004411    1.00   0.06  0.00  0.00  0.94  0.00  0.00  0.00  0.00  0.00
  WS02004409WS02004410    1.00   0.06  0.00  0.00  0.94  0.00  0.00  0.00  0.01  0.00
  WS02004407WS02004409    1.00   0.06  0.00  0.00  0.94  0.00  0.00  0.00  0.88  0.00
  WS02004406WS02004407    1.00   0.00  0.06  0.00  0.94  0.00  0.00  0.00  0.00  0.00
  WS02004405WS02004406    1.00   0.00  0.00  0.00  1.00  0.00  0.00  0.00  0.04  0.00
  WS02004404WS02004405    1.00   0.00  0.00  0.00  1.00  0.00  0.00  0.00  0.00  0.00
  WS02004403WS02004404    1.00   0.00  0.05  0.00  0.95  0.00  0.00  0.00  0.00  0.00
  WS02004402WS02004403    1.00   0.04  0.00  0.00  0.96  0.00  0.00  0.00  0.00  0.00
  WS02004139WS02001211    1.00   0.00  0.00  0.00  1.00  0.00  0.00  0.00  0.00  0.00
  WS02004138WS02004139    1.00   0.00  0.07  0.00  0.93  0.00  0.00  0.00  0.94  0.00
  WS02003067WS02003066    1.00   0.06  0.00  0.00  0.93  0.00  0.00  0.00  0.00  0.00
  WS02001213WS02003059    1.00   0.00  0.00  0.00  1.00  0.00  0.00  0.00  0.00  0.00
  WS02001212WS02001213    1.00   0.01  0.00  0.00  0.47  0.00  0.52  0.00  0.00  0.00
  WS02001211WS02001212    1.00   0.00  0.01  0.00  0.99  0.00  0.00  0.00  0.00  0.00
  WS02003072WS02003073    1.00   0.00  0.00  0.00  0.00  0.00  0.00  1.00  0.00  0.00
  WS02003069WS02003072    1.00   0.00  0.00  0.00  1.00  0.00  0.00  0.00  0.85  0.00
  WS02003060WS02003069    1.00   0.00  0.00  0.00  0.97  0.03  0.00  0.00  0.50  0.00
  WS02003059WS02003060    1.00   0.00  0.00  0.00  1.00  0.00  0.00  0.00  0.07  0.00
  HS02004901HS02004770    1.00   0.06  0.00  0.00  0.94  0.00  0.00  0.00  0.01  0.00
  HS02004876HS02004881    1.00   0.00  0.00  0.00  0.86  0.14  0.00  0.00  0.00  0.00
  HS02004870HS02004876    1.00   0.00  0.00  0.00  1.00  0.00  0.00  0.00  0.95  0.00
  HS02004842HS02004848    1.00   0.00  0.06  0.00  0.94  0.00  0.00  0.00  0.58  0.00
  HS02004837HS02004842    1.00   0.00  0.00  0.00  1.00  0.00  0.00  0.00  0.11  0.00
  HS02004830HS02004837    1.00   0.00  0.00  0.00  1.00  0.00  0.00  0.00  0.99  0.00
  HS02004824HS02004830    1.00   0.00  0.00  0.00  1.00  0.00  0.00  0.00  0.01  0.00
  HS02004817HS02004824    1.00   0.00  0.00  0.00  1.00  0.00  0.00  0.00  0.98  0.00
  HS02004770HS02004777    1.00   0.00  0.06  0.00  0.94  0.00  0.00  0.00  0.04  0.00
  HS02004799HS02004480    1.00   0.00  0.01  0.00  0.93  0.00  0.06  0.00  0.00  0.00
  HS02004792HS02004799    1.00   0.00  0.00  0.00  1.00  0.00  0.00  0.00  0.98  0.00
  HS02004788HS02004792    1.00   0.00  0.00  0.00  1.00  0.00  0.00  0.00  0.98  0.00
  HS02004785HS02004788    1.00   0.00  0.00  0.00  1.00  0.00  0.00  0.00  0.00  0.00
  HS02004777HS02004785    1.00   0.00  0.00  0.00  1.00  0.00  0.00  0.00  0.15  0.00
  HS02004480HS02004478    1.00   0.06  0.00  0.00  0.63  0.00  0.00  0.31  0.00  0.00
  HS02004479HS02004480    1.00   0.01  0.00  0.00  0.99  0.00  0.00  0.00  0.13  0.00
  HS02004862HS02004870    1.00   0.00  0.00  0.00  1.00  0.00  0.00  0.00  0.06  0.00
  HS02004848HS02004852    1.00   0.06  0.00  0.00  0.94  0.00  0.00  0.00  0.64  0.00
  HS02004856HS02004862    1.00   0.00  0.08  0.00  0.92  0.00  0.00  0.00  0.79  0.00
  HS02004852HS02004856    1.00   0.06  0.00  0.00  0.94  0.00  0.00  0.00  0.81  0.00
  HS02004802HS02004478    1.00   0.06  0.00  0.00  0.94  0.00  0.00  0.00  0.03  0.00
  HS02004478WS02006287    1.00   0.07  0.00  0.00  0.68  0.24  0.00  0.00  0.66  0.00
  HS02004817HS02004807    1.00   0.00  0.06  0.00  0.94  0.00  0.00  0.00  0.01  0.00
  HS02004807HS02004802    1.00   0.06  0.00  0.00  0.93  0.00  0.00  0.00  0.00  0.00
  YS02001759YS02001757    1.00   0.00  0.00  0.00  1.00  0.00  0.00  0.00  0.17  0.00
  YS02001762YS02001759    1.00   0.00  0.00  0.00  1.00  0.00  0.00  0.00  0.04  0.00
  YS02001765YS02001762    1.00   0.00  0.00  0.00  1.00  0.00  0.00  0.00  0.17  0.00
  YS02001770YS02001767    1.00   0.00  0.00  0.00  1.00  0.00  0.00  0.00  0.00  0.00
  YS02001774YS02001770    1.00   0.00  0.06  0.00  0.94  0.00  0.00  0.00  0.04  0.00
  YS02001779YS02001774    1.00   0.00  0.00  0.00  1.00  0.00  0.00  0.00  0.22  0.00
  YS02001649YS02001757    1.00   0.00  0.00  0.00  1.00  0.00  0.00  0.00  0.17  0.00
  YS02001767YS02001765    1.00   0.00  0.00  0.00  1.00  0.00  0.00  0.00  0.01  0.00
  YS02006561YS02001783    1.00   0.08  0.00  0.00  0.83  0.09  0.00  0.00  0.56  0.00
  YS02001783YS02001784    1.00   0.00  0.08  0.00  0.92  0.00  0.00  0.00  0.01  0.00
  YS02001784YS02001785    1.00   0.00  0.00  0.00  1.00  0.00  0.00  0.00  0.21  0.00
  YS02001788YS02001790    1.00   0.00  0.00  0.00  0.95  0.05  0.00  0.00  0.25  0.00
  YS02001790YS02001791    1.00   0.00  0.00  0.00  0.86  0.14  0.00  0.00  0.05  0.00
  YS02001791YS02001793    1.00   0.00  0.00  0.00  0.86  0.14  0.00  0.00  0.01  0.00
  YS02001910YS02001907    1.00   0.00  0.00  0.00  0.99  0.00  0.00  0.01  0.13  0.00
  YS02001786YS02001788    1.00   0.00  0.00  0.00  0.94  0.06  0.00  0.00  0.00  0.00
  YS02001915YS02001910    1.00   0.00  0.00  0.00  0.99  0.01  0.00  0.00  0.19  0.00
  YS02001918YS02001915    1.00   0.00  0.00  0.00  0.99  0.00  0.00  0.00  0.56  0.00
  YS02001923YS02001920    1.00   0.00  0.00  0.00  1.00  0.00  0.00  0.00  0.82  0.00
  YS02001926YS02001923    1.00   0.00  0.02  0.00  0.22  0.00  0.76  0.00  0.00  0.00
  YS02001929YS02001926    1.00   0.00  0.06  0.00  0.94  0.00  0.00  0.00  0.75  0.00
  YS02001920YS02001918    1.00   0.00  0.00  0.00  1.00  0.00  0.00  0.00  0.00  0.00
  YS02001629YS02163301    1.00   0.07  0.00  0.00  0.92  0.00  0.00  0.00  0.00  0.00
  YS02001619YS02001622    1.00   0.06  0.00  0.00  0.94  0.00  0.00  0.00  0.00  0.00
  YS02001622YS02001625    1.00   0.06  0.00  0.00  0.94  0.00  0.00  0.00  0.08  0.00
  YS02001625YS02001629    1.00   0.06  0.03  0.00  0.89  0.00  0.02  0.00  0.00  0.00
  YS02163301YS02001633    1.00   0.00  0.07  0.00  0.93  0.00  0.00  0.00  0.00  0.00
  YS02163601YS02164001    1.00   0.00  0.03  0.00  0.97  0.00  0.00  0.00  0.00  0.00
  YS02164001YS02001641    1.00   0.00  0.03  0.00  0.97  0.00  0.00  0.00  0.06  0.00
  YS02001641YS02001644    1.00   0.00  0.00  0.00  1.00  0.00  0.00  0.00  0.00  0.00
  YS02001647YS02001649    1.00   0.00  0.08  0.00  0.92  0.00  0.00  0.00  0.01  0.00
  YS02006553YS02006556    1.00   0.00  0.00  0.00  1.00  0.00  0.00  0.00  0.03  0.00
  YS02006556YS02006558    1.00   0.00  0.00  0.00  1.00  0.00  0.00  0.00  0.00  0.00
  YSB6556YSB1171          1.00   0.01  0.05  0.00  0.94  0.00  0.00  0.00  0.00  0.00
  YS02001907YS02006553    1.00   0.00  0.01  0.00  0.99  0.00  0.00  0.00  0.00  0.00
  YS02006558YS02006561    1.00   0.08  0.00  0.00  0.27  0.65  0.00  0.00  0.47  0.00
  YS02001633YS02163601    1.00   0.00  0.00  0.00  1.00  0.00  0.00  0.00  0.16  0.00
  YS02001644YS02001647    1.00   0.00  0.08  0.00  0.92  0.00  0.00  0.00  0.00  0.00
  YS02001745YS02001748    1.00   0.00  0.00  0.00  0.86  0.01  0.00  0.13  0.03  0.00
  YS02001748YS02001751    1.00   0.00  0.00  0.00  0.96  0.04  0.00  0.00  0.15  0.00
  YS02001751YS02001754    1.00   0.00  0.00  0.00  0.91  0.00  0.00  0.09  0.02  0.00
  YS02001754YS02001757    1.00   0.00  0.00  0.00  1.00  0.00  0.00  0.00  0.21  0.00
  YS02001882YS02001884    1.00   0.07  0.00  0.00  0.93  0.00  0.00  0.00  0.00  0.00
  YS02001884YS02001887    1.00   0.02  0.04  0.00  0.94  0.00  0.00  0.00  0.00  0.00
  YS02001890YS02001895    1.00   0.00  0.07  0.00  0.93  0.00  0.00  0.00  0.00  0.00
  YS02001895YS02001898    1.00   0.07  0.00  0.00  0.91  0.00  0.01  0.00  0.00  0.00
  YS02001898YS02001901    1.00   0.07  0.00  0.00  0.92  0.00  0.00  0.00  0.03  0.00
  YS02001901YS02001904    1.00   0.07  0.00  0.00  0.93  0.00  0.00  0.00  0.00  0.00
  YS02001904YS02001907    1.00   0.00  0.07  0.00  0.93  0.00  0.00  0.00  0.00  0.00
  YS02001887YS02001890    1.00   0.00  0.00  0.00  0.99  0.00  0.01  0.00  0.00  0.00
  YS02001652YS02001649    1.00   0.00  0.00  0.00  1.00  0.00  0.00  0.00  0.19  0.00
  YS02001655YS02001652    1.00   0.00  0.00  0.00  0.91  0.00  0.00  0.09  0.03  0.00
  YS02001658YS02001655    1.00   0.00  0.07  0.00  0.90  0.04  0.00  0.00  0.13  0.00
  YS02001661YS02001658    1.00   0.07  0.00  0.00  0.86  0.07  0.00  0.00  0.08  0.00
  YS02001664YS02001661    1.00   0.06  0.00  0.00  0.89  0.05  0.00  0.00  0.22  0.00
  YSB1154YSB6556          1.00   0.06  0.00  0.00  0.94  0.00  0.00  0.00  0.02  0.00
  YSB1174YSB1171          1.00   0.01  0.04  0.00  0.95  0.00  0.00  0.00  0.00  0.00
  YSB1171HS02004479       1.00   0.01  0.00  0.00  0.99  0.00  0.00  0.00  0.11  0.00
  HS02004881HS02006253    1.00   0.01  0.00  0.00  0.27  0.08  0.00  0.63  0.20  0.00
  YS02001793JiankangQianchi    1.00   0.00  0.00  0.00  1.00  0.00  0.00  0.00  0.29  0.00
  YS02001757CaochengTiaoxuchi    1.00   0.00  0.10  0.00  0.89  0.00  0.00  0.00  0.00  0.00
  WSF200WS02003060        1.00   0.00  0.07  0.00  0.34  0.59  0.00  0.00  0.49  0.00
  1                       1.00   0.00  0.00  0.00  0.00  1.00  0.00  0.00  0.27  0.00
  2                       1.00   0.97  0.00  0.00  0.00  0.03  0.00  0.00  0.01  0.00
  3                       1.00   0.63  0.00  0.00  0.00  0.37  0.00  0.00  0.47  0.00
  4                       1.00   1.00  0.00  0.00  0.00  0.00  0.00  0.00  0.00  0.00
  
  
  *************************
  Conduit Surcharge Summary
  *************************
  
  ----------------------------------------------------------------------------
                                                           Hours        Hours 
                         --------- Hours Full --------   Above Full   Capacity
  Conduit                Both Ends  Upstream  Dnstream   Normal Flow   Limited
  ----------------------------------------------------------------------------
  WS02006229WS02006228        0.78      0.80      0.78      1.33         0.78
  WS02006256WS02006235        3.76      3.76      6.66      1.54         0.01
  WS02006249WS02006248        0.01      0.01      0.01      0.69         0.01
  WS02006247WS02006245        0.01      0.01      0.01      1.70         0.01
  WS02006243WS02006242        0.01      0.01      0.29      0.01         0.01
  WS02006242WS02006240        0.27      0.27      0.32      0.01         0.01
  WS02006240WS02006239        0.28      0.28      0.32      0.01         0.01
  WS02006239WS02006238        0.36      0.36      0.40      0.01         0.01
  WS02006238WS02006235        0.39      0.39      0.42      0.01         0.01
  WS02006235WS02006234        0.36      0.36      0.38      3.59         0.01
  WS02006234WS02006232        0.38      0.38      0.50      0.01         0.01
  WS02006232WS02006231        0.36      0.36      0.50      0.01         0.01
  WS02006231WS02006230        0.35      0.35      0.37      4.07         0.01
  WS02006230WS02006229        0.87      0.90      0.87      5.03         0.87
  WS02006228WS02006109        0.79      0.83      0.79      1.97         0.79
  WS02006116WS02004401        0.21      0.21      0.22      0.13         0.14
  WS02006112WS02006115        0.01      0.01      0.60      0.01         0.01
  WS02006111WS02006112        0.01      0.01      1.37      0.01         0.01
  WS02006110WS02006113        0.01      0.01      0.81      0.01         0.01
  WS02006109WS02006110        0.49      0.49      0.83      0.49         0.01
  WS02004411WS02004412        0.01      0.01      0.01      0.19         0.01
  WS02004401WS02004402        0.22      0.22      0.26      0.01         0.01
  WS02004410WS02004411        0.01      0.01      0.01      0.09         0.01
  WS02004406WS02004407        0.01      0.01      0.34      0.01         0.01
  WS02004405WS02004406        0.34      0.37      0.34      0.56         0.34
  WS02004404WS02004405        0.37      0.39      0.37      4.53         0.37
  WS02004403WS02004404        0.26      0.26      0.39      0.01         0.01
  WS02004402WS02004403        0.26      0.26      0.26      0.21         0.21
  WS02003072WS02003073        0.01      0.01      0.01      0.84         0.01
  HS02004876HS02004881        0.01      0.01      0.01      0.17         0.01
  HS02004785HS02004788        0.01      0.01      0.01      0.10         0.01
  HS02004480HS02004478        0.01      0.01      0.01      0.52         0.01
  YS02001759YS02001757        5.54      5.54      5.62      0.01         0.01
  YS02001762YS02001759        5.52      5.52      5.54      0.01         0.01
  YS02001765YS02001762        5.49      5.49      5.52      0.01         0.01
  YS02001770YS02001767        5.47      5.47      5.47      0.25         0.64
  YS02001774YS02001770        5.46      5.46      5.51      0.01         0.01
  YS02001779YS02001774        5.36      5.36      5.51      0.01         0.01
  YS02001649YS02001757        5.52      5.52      5.62      0.01         0.01
  YS02001767YS02001765        5.47      5.47      5.49      0.01         0.01
  YS02006561YS02001783        0.92      0.92      1.62      0.01         0.01
  YS02001783YS02001784        1.62      1.62      1.67      1.27         1.28
  YS02001784YS02001785        1.63      1.67      1.63      2.24         1.63
  YS02001788YS02001790        1.62      1.62      5.22      0.01         0.01
  YS02001790YS02001791        5.22      5.22      5.35      0.76         0.75
  YS02001791YS02001793        5.35      5.35      5.54      0.01         0.01
  YS02001910YS02001907        1.24      1.24      1.71      0.01         0.01
  YS02001786YS02001788        1.62      1.63      1.62      1.85         1.62
  YS02001915YS02001910        1.03      1.03      1.24      0.01         0.01
  YS02001918YS02001915        0.79      0.79      1.03      0.01         0.01
  YS02001923YS02001920        0.63      0.63      0.83      0.01         0.01
  YS02001920YS02001918        0.79      0.79      0.83      0.01         0.01
  YS02001629YS02163301        5.46      5.46      5.46      0.01         0.01
  YS02001619YS02001622        5.20      5.20      5.23      0.01         0.01
  YS02001622YS02001625        5.23      5.23      5.43      0.01         0.01
  YS02001625YS02001629        5.21      5.21      5.43      0.01         0.01
  YS02163301YS02001633        5.46      5.46      5.49      0.01         0.01
  YS02163601YS02164001        5.49      5.49      5.52      0.01         0.01
  YS02164001YS02001641        5.49      5.49      5.50      0.01         0.02
  YS02001641YS02001644        5.50      5.50      5.50      1.47         1.46
  YS02001647YS02001649        5.42      5.42      5.52      0.01         0.01
  YS02006553YS02006556        1.44      1.44      1.78      0.01         0.01
  YS02006556YS02006558        1.55      1.55      1.83      0.01         0.01
  YS02001907YS02006553        2.27      2.27      2.46      0.01         0.01
  YS02006558YS02006561        1.13      1.40      1.13      2.09         1.13
  YS02001633YS02163601        5.49      5.49      5.52      0.01         0.01
  YS02001644YS02001647        5.42      5.42      5.50      0.01         0.01
  YS02001745YS02001748        0.01      0.01      5.06      0.01         0.01
  YS02001748YS02001751        5.10      5.10      5.20      0.01         0.01
  YS02001751YS02001754        5.20      5.20      5.37      0.01         0.01
  YS02001754YS02001757        5.41      5.41      5.62      0.01         0.01
  YS02001882YS02001884        1.04      1.04      1.07      0.01         0.01
  YS02001884YS02001887        1.13      1.13      1.16      0.01         0.01
  YS02001890YS02001895        1.02      1.02      1.25      0.01         0.01
  YS02001895YS02001898        1.00      1.00      1.02      0.01         0.01
  YS02001898YS02001901        1.03      1.03      1.12      0.01         0.01
  YS02001901YS02001904        1.10      1.10      1.12      0.01         0.01
  YS02001904YS02001907        1.10      1.10      1.79      0.01         0.01
  YS02001887YS02001890        1.19      1.19      1.22      0.07         0.01
  YS02001652YS02001649        5.42      5.42      5.52      0.01         0.01
  YS02001655YS02001652        5.22      5.22      5.40      0.01         0.01
  YS02001658YS02001655        5.09      5.09      5.22      0.01         0.01
  YS02001661YS02001658        0.18      0.18      5.09      0.01         0.01
  YS02001664YS02001661        0.01      0.01      1.02      0.01         0.01
  YS02001793JiankangQianchi        5.53      5.53      6.51      0.01         0.01
  YS02001757CaochengTiaoxuchi        4.91      4.91      5.62      0.01         0.01
  
  
  ***************
  Pumping Summary
  ***************
  
  ---------------------------------------------------------------------------------------------------------
                                                  Min       Avg       Max     Total     Power    % Time Off
                        Percent   Number of      Flow      Flow      Flow    Volume     Usage    Pump Curve
  Pump                 Utilized   Start-Ups       LPS       LPS       LPS  10^6 ltr     Kw-hr    Low   High
  ---------------------------------------------------------------------------------------------------------
  CC-Pump-1               17.01           4      0.00    109.84    199.95     0.480      0.24    0.0    0.0
  CC-Pump-2               29.72           7      0.00    116.77    200.00     0.875      0.74    0.0    7.0
  JK-Pump-1               14.90           2      0.00    196.96    300.00     0.720      4.86    0.0    0.0
  JK-Pump-2               19.15           3      0.00    182.98    300.00     0.900      3.53    0.0    0.0
  XR-Pump-1               51.07           9      0.00     53.80     95.00     0.798      3.54    0.0    0.0
  XR-Pump-2               12.77           3      0.00     54.04     94.99     0.171      0.77    0.0    0.0
  XR-Pump-3                0.00           0      0.00      0.00      0.00     0.000      0.00    0.0    0.0
  XR-Pump-4               27.67           6      0.00     51.46     95.00     0.399      1.77    0.0    0.0
  

  Analysis begun on:  Thu Jan  6 20:01:23 2022
  Analysis ended on:  Thu Jan  6 20:01:25 2022
  Total elapsed time: 00:00:02