
  EPA STORM WATER MANAGEMENT MODEL - VERSION 5.1 (Build 5.3.0.dev0)
  --------------------------------------------------------------

  WARNING 04: minimum elevation drop used for Conduit WS02004404WS02004405
  WARNING 03: negative offset ignored for Link YS02001904YS02001907
  
  *********************************************************
  NOTE: The summary statistics displayed in this report are
  based on results found at every computational time step,  
  not just on results from each reporting time step.
  *********************************************************
  
  ****************
  Analysis Options
  ****************
  Flow Units ............... LPS
  Process Models:
    Rainfall/Runoff ........ YES
    RDII ................... NO
    Snowmelt ............... NO
    Groundwater ............ NO
    Flow Routing ........... YES
    Ponding Allowed ........ NO
    Water Quality .......... NO
  Infiltration Method ...... HORTON
  Flow Routing Method ...... DYNWAVE
  Surcharge Method ......... EXTRAN
  Starting Date ............ 08/28/2015 08:00:00
  Ending Date .............. 08/28/2015 15:50:00
  Antecedent Dry Days ...... 8.0
  Report Time Step ......... 00:01:00
  Wet Time Step ............ 00:01:00
  Dry Time Step ............ 00:01:00
  Routing Time Step ........ 5.00 sec
  Variable Time Step ....... YES
  Maximum Trials ........... 8
  Number of Threads ........ 4
  Head Tolerance ........... 0.001500 m
  
  
  **************************        Volume         Depth
  Runoff Quantity Continuity     hectare-m            mm
  **************************     ---------       -------
  Total Precipitation ......        10.887        23.836
  Evaporation Loss .........         0.000         0.000
  Infiltration Loss ........         2.344         5.132
  Surface Runoff ...........         7.303        15.990
  Final Storage ............         1.241         2.717
  Continuity Error (%) .....        -0.012
  
  
  **************************        Volume        Volume
  Flow Routing Continuity        hectare-m      10^6 ltr
  **************************     ---------     ---------
  Dry Weather Inflow .......         0.616         6.165
  Wet Weather Inflow .......         7.302        73.018
  Groundwater Inflow .......         0.000         0.000
  RDII Inflow ..............         0.000         0.000
  External Inflow ..........         0.102         1.024
  External Outflow .........         1.218        12.185
  Flooding Loss ............         6.237        62.372
  Evaporation Loss .........         0.000         0.000
  Exfiltration Loss ........         0.000         0.000
  Initial Stored Volume ....         0.076         0.761
  Final Stored Volume ......         0.649         6.490
  Continuity Error (%) .....        -0.098
  
  
  *************************
  Highest Continuity Errors
  *************************
  Node YS02001884 (9.35%)
  Node HS02004842 (8.73%)
  Node WS02003059 (1.83%)
  Node HS02004817 (1.69%)
  Node YSB1171 (1.47%)
  
  
  ***************************
  Time-Step Critical Elements
  ***************************
  Link WS02006252WS02006251 (57.95%)
  Link 3 (29.94%)
  Link WS02006238WS02006235 (4.01%)
  Link WS02006280WS02006229 (2.87%)
  
  
  ********************************
  Highest Flow Instability Indexes
  ********************************
  Link WS02006113WS02006111 (41)
  Link YS02163601YS02164001 (28)
  Link YS02163301YS02001633 (27)
  Link YS02001629YS02163301 (27)
  Link YS02001619YS02001622 (25)
  
  
  *************************
  Routing Time Step Summary
  *************************
  Minimum Time Step           :     0.33 sec
  Average Time Step           :     0.91 sec
  Maximum Time Step           :     5.00 sec
  Percent in Steady State     :    -0.00
  Average Iterations per Step :     3.64
  Percent Not Converging      :    10.77
  
  
  ***************************
  Subcatchment Runoff Summary
  ***************************
  
  ------------------------------------------------------------------------------------------------------------------------------
                            Total      Total      Total      Total     Imperv       Perv      Total       Total     Peak  Runoff
                           Precip      Runon       Evap      Infil     Runoff     Runoff     Runoff      Runoff   Runoff   Coeff
  Subcatchment                 mm         mm         mm         mm         mm         mm         mm    10^6 ltr      LPS
  ------------------------------------------------------------------------------------------------------------------------------
  sub0                      23.84       0.00       0.00       1.03      20.90       0.64      21.54        0.02     4.74   0.904
  sub1                      23.84       0.00       0.00       1.74      19.95       0.88      20.83        0.14    30.53   0.874
  sub2                      23.84       0.00       0.00       6.87      14.10       1.95      16.05        0.15    28.29   0.673
  sub3                      23.84       0.00       0.00       7.14      14.06       1.68      15.74        0.35    61.76   0.660
  sub4                      23.84       0.00       0.00       1.87      19.78       0.75      20.54        0.43    72.83   0.862
  sub5                      23.84       0.00       0.00       1.08      20.85       0.59      21.44        0.24    54.28   0.899
  sub7                      23.84       0.00       0.00       1.37      20.44       0.77      21.21        0.07    17.57   0.890
  sub8                      23.84       0.00       0.00       1.38      20.42       0.76      21.19        0.14    32.08   0.889
  sub9                      23.84       0.00       0.00       1.39      20.42       0.76      21.18        0.10    23.95   0.889
  sub10                     23.84       0.00       0.00       1.24      20.63       0.67      21.30        0.23    53.40   0.894
  sub11                     23.84       0.00       0.00       1.22      20.65       0.69      21.34        0.25    59.71   0.895
  sub12                     23.84       0.00       0.00       1.98      19.55       1.11      20.66        0.18    46.17   0.867
  sub14                     23.84       0.00       0.00       1.39      20.42       0.76      21.18        0.20    47.08   0.888
  sub15                     23.84       0.00       0.00       5.16      15.70       1.99      17.70        0.30    64.58   0.742
  sub16                     23.84       0.00       0.00       5.46      15.05       2.40      17.45        0.18    41.69   0.732
  sub17                     23.84       0.00       0.00       5.32      15.27       2.31      17.58        0.15    34.22   0.738
  sub22                     23.84       0.00       0.00       7.63      12.80       2.62      15.42        0.97   202.91   0.647
  sub23                     23.84       0.00       0.00       6.37      14.15       2.45      16.60        0.79   171.10   0.696
  sub60                     23.84       0.00       0.00       2.46      17.68       0.40      18.08        5.48   635.50   0.759
  sub61                     23.84       0.00       0.00       3.48      17.44       0.57      18.00        5.55   687.97   0.755
  sub62                     23.84       0.00       0.00       1.52      19.11       0.39      19.50        5.99   726.55   0.818
  sub63                     23.84       0.00       0.00       6.22      15.11       0.70      15.81        4.78   606.27   0.663
  sub64                     23.84       0.00       0.00       3.15      17.01       0.42      17.43        5.30   611.50   0.731
  sub65                     23.84       0.00       0.00       2.70      17.34       0.40      17.73        5.45   625.37   0.744
  sub66                     23.84       0.00       0.00       6.42      14.44       0.49      14.93        4.58   541.58   0.626
  sub67                     23.84       0.00       0.00       1.46      19.71       0.45      20.16        6.22   787.40   0.846
  sub68                     23.84       0.00       0.00       2.78      18.22       0.56      18.78        5.78   724.10   0.788
  sub69                     23.84       0.00       0.00       2.86      18.50       0.72      19.22        4.49   586.55   0.806
  sub70                     23.84      19.62       0.00       9.95      26.14       3.78      29.92        6.85   801.71   0.689
  sub71                     23.84       0.00       0.00       1.54      18.81       0.36      19.18        4.53   536.91   0.805
  sub72                     23.84       0.00       0.00       1.45      16.32       0.22      16.55        3.37   330.66   0.694
  sub73                     23.84      29.13       0.00       9.95      31.58       5.28      36.86        8.66   884.85   0.696
  sub74                     23.84       0.00       0.00      17.30       5.48       0.57       6.05        2.42   323.16   0.254
  
  
  ******************
  Node Depth Summary
  ******************
  
  ---------------------------------------------------------------------------------
                                 Average  Maximum  Maximum  Time of Max    Reported
                                   Depth    Depth      HGL   Occurrence   Max Depth
  Node                 Type       Meters   Meters   Meters  days hr:min      Meters
  ---------------------------------------------------------------------------------
  WS02001211           JUNCTION     0.48     0.65     5.48     0  01:42        0.64
  WS02001212           JUNCTION     0.24     0.41     5.47     0  01:41        0.41
  WS02001213           JUNCTION     0.50     0.71     5.47     0  01:41        0.70
  WS02003069           JUNCTION     0.35     0.59     5.18     0  01:43        0.59
  WS02003072           JUNCTION     0.42     0.65     5.02     0  01:44        0.65
  WS02003073           JUNCTION     0.25     0.40     4.47     0  01:45        0.40
  WS02003060           JUNCTION     0.32     0.52     5.46     0  01:42        0.52
  WS02003066           JUNCTION     0.23     0.37     5.92     0  01:39        0.37
  WS02003059           JUNCTION     0.57     0.77     5.46     0  01:42        0.77
  WS02003067           JUNCTION     0.57     0.80     6.12     0  01:37        0.80
  WS02004401           JUNCTION     0.69     1.24     7.24     0  01:32        1.18
  WS02004402           JUNCTION     0.72     1.25     7.21     0  01:33        1.18
  WS02004403           JUNCTION     0.74     1.28     7.21     0  01:33        1.16
  WS02004404           JUNCTION     0.81     1.32     7.17     0  01:33        1.21
  WS02004406           JUNCTION     0.81     1.23     7.06     0  01:33        1.14
  WS02004409           JUNCTION     0.50     0.89     6.66     0  01:38        0.89
  WS02004410           JUNCTION     0.52     0.89     6.61     0  01:38        0.89
  WS02004411           JUNCTION     0.53     0.88     6.56     0  01:38        0.88
  WS02004412           JUNCTION     0.54     0.86     6.50     0  01:39        0.86
  WS02004413           JUNCTION     0.70     0.99     6.46     0  01:39        0.99
  WS02004405           JUNCTION     0.80     1.27     7.12     0  01:33        1.18
  WS02006109           JUNCTION     0.78     1.36     7.98     0  01:35        1.36
  WS02006110           JUNCTION     0.76     1.20     7.78     0  01:36        1.18
  WS02006111           JUNCTION     0.24     0.74     7.45     0  01:36        0.74
  WS02006112           JUNCTION     0.87     1.50     7.38     0  01:33        1.47
  WS02006113           JUNCTION     0.35     0.71     7.60     0  01:35        0.71
  WS02006115           JUNCTION     0.59     1.37     7.50     0  01:33        1.15
  WS02006116           JUNCTION     0.67     1.37     7.41     0  01:33        1.20
  WS02006230           JUNCTION     0.75     2.45     9.20     0  01:30        1.49
  WS02006231           JUNCTION     0.51     1.86     8.98     0  01:30        1.19
  WS02006232           JUNCTION     0.63     1.72     8.76     0  01:30        1.36
  WS02006234           JUNCTION     0.53     1.51     8.67     0  01:31        1.34
  WS02006235           JUNCTION     0.55     1.51     8.67     0  01:31        1.37
  WS02006238           JUNCTION     0.58     1.53     8.67     0  01:31        1.41
  WS02006240           JUNCTION     0.47     1.89     9.18     0  01:30        1.21
  WS02006242           JUNCTION     0.52     1.55     8.82     0  01:30        1.08
  WS02006243           JUNCTION     0.40     1.48     8.90     0  01:31        0.82
  WS02006245           JUNCTION     0.38     1.36     8.84     0  01:31        0.76
  WS02006247           JUNCTION     0.39     1.47     8.97     0  01:31        0.74
  WS02006248           JUNCTION     0.34     0.89     8.48     0  01:31        0.65
  WS02006249           JUNCTION     0.37     0.68     8.28     0  01:32        0.66
  WS02006239           JUNCTION     0.53     1.81     9.02     0  01:30        1.34
  WS02006251           JUNCTION     0.35     0.63     8.30     0  01:33        0.62
  WS02006252           JUNCTION     0.26     0.59     8.83     0  07:29        0.59
  WS02006253           JUNCTION     0.38     0.67     8.31     0  01:32        0.66
  WS02006256           JUNCTION     0.90     1.20     8.14     0  07:40        1.20
  WS02004138           JUNCTION     0.06     0.14     7.39     0  00:30        0.14
  WS02004407           JUNCTION     0.22     0.38     6.69     0  01:36        0.38
  WS02006228           JUNCTION     0.79     1.49     8.15     0  01:35        1.49
  WS02006229           JUNCTION     0.78     1.55     8.24     0  01:35        1.55
  WS02006280           JUNCTION     0.10     0.29     8.56     0  01:35        0.29
  WS02006284           JUNCTION     0.41     0.68     9.08     0  01:36        0.68
  WS02006287           JUNCTION     0.14     0.43     9.38     0  01:35        0.43
  WSF200               JUNCTION     0.22     0.39     5.62     0  01:43        0.39
  HS02004901           JUNCTION     0.16     0.40    10.23     0  01:33        0.40
  HS02004881           JUNCTION     0.01     0.06     9.09     0  01:36        0.06
  HS02004876           JUNCTION     0.06     0.18     9.21     0  01:36        0.18
  HS02004870           JUNCTION     0.03     0.11     9.39     0  01:36        0.11
  HS02004862           JUNCTION     0.03     0.12     9.50     0  01:37        0.12
  HS02004856           JUNCTION     0.09     0.16     9.59     0  01:37        0.16
  HS02004852           JUNCTION     0.02     0.09     9.60     0  01:37        0.09
  HS02004848           JUNCTION     0.02     0.08     9.68     0  01:37        0.08
  HS02004842           JUNCTION     0.34     0.41     9.68     0  01:37        0.41
  HS02004837           JUNCTION     0.04     0.10     9.68     0  01:37        0.10
  HS02004830           JUNCTION     0.05     0.13     9.60     0  01:36        0.13
  HS02004824           JUNCTION     0.04     0.17     9.57     0  01:35        0.17
  HS02004817           JUNCTION     0.48     0.74     9.59     0  01:35        0.74
  HS02004807           JUNCTION     0.16     0.41     9.58     0  01:36        0.40
  HS02004802           JUNCTION     0.20     0.44     9.56     0  01:36        0.44
  HS02004799           JUNCTION     0.17     0.51     9.72     0  01:34        0.51
  HS02004792           JUNCTION     0.06     0.24     9.76     0  01:33        0.24
  HS02004788           JUNCTION     0.04     0.17    10.07     0  01:34        0.17
  HS02004785           JUNCTION     0.07     0.27    10.17     0  01:33        0.27
  HS02004777           JUNCTION     0.18     0.41    10.21     0  01:33        0.41
  HS02004770           JUNCTION     0.15     0.39    10.22     0  01:33        0.39
  HS02004480           JUNCTION     0.12     0.42     9.66     0  01:34        0.42
  HS02004479           JUNCTION     0.16     0.46     9.66     0  01:34        0.46
  HS02004478           JUNCTION     0.09     0.32     9.54     0  01:36        0.32
  YS02001745           JUNCTION     0.82     1.05     8.57     0  01:33        1.04
  YS02001748           JUNCTION     1.23     2.24     9.32     0  01:32        1.46
  YS02001751           JUNCTION     1.41     2.20     9.08     0  01:32        1.64
  YS02001754           JUNCTION     1.66     2.12     8.73     0  01:32        1.89
  YS02001762           JUNCTION     1.86     2.07     8.47     0  03:01        2.07
  YS02001765           JUNCTION     1.81     2.02     8.47     0  03:01        2.02
  YS02001767           JUNCTION     1.77     1.97     8.46     0  02:20        1.97
  YS02001770           JUNCTION     1.76     1.95     8.44     0  02:18        1.95
  YS02001774           JUNCTION     1.82     2.01     8.43     0  01:31        2.00
  YS02001779           JUNCTION     1.56     1.68     8.37     0  01:31        1.68
  YS02001882           JUNCTION     0.80     1.77     8.49     0  01:36        1.63
  YS02001884           JUNCTION     0.89     1.84     8.46     0  01:36        1.74
  YS02001759           JUNCTION     1.89     2.12     8.49     0  01:32        2.11
  YS02001887           JUNCTION     0.97     1.87     8.40     0  01:36        1.81
  YS02001890           JUNCTION     1.00     1.81     8.32     0  01:36        1.81
  YS02001898           JUNCTION     0.76     1.63     8.36     0  01:36        1.56
  YS02001901           JUNCTION     0.88     1.72     8.33     0  01:36        1.67
  YS02001904           JUNCTION     0.85     1.66     8.29     0  01:36        1.63
  YS02001907           JUNCTION     1.18     1.96     8.25     0  01:36        1.96
  YS02001910           JUNCTION     0.98     1.99     8.50     0  01:37        1.80
  YS02001915           JUNCTION     0.78     1.93     8.64     0  01:37        1.62
  YS02001918           JUNCTION     0.52     1.81     8.88     0  01:37        1.33
  YS02001619           JUNCTION     1.35     1.61     8.54     0  01:31        1.50
  YS02001629           JUNCTION     1.70     1.85     8.40     0  01:31        1.85
  YS02001641           JUNCTION     1.79     1.96     8.39     0  01:32        1.93
  YS02001644           JUNCTION     1.80     1.92     8.35     0  01:32        1.92
  YS02001652           JUNCTION     1.67     2.11     8.71     0  01:33        1.88
  YS02001655           JUNCTION     1.43     2.20     9.05     0  01:32        1.66
  YS02001920           JUNCTION     0.62     2.14     9.15     0  01:38        1.42
  YS02001923           JUNCTION     0.43     2.03     9.29     0  01:38        1.20
  YS02001926           JUNCTION     0.44     1.90     9.35     0  01:38        1.07
  YS02001929           JUNCTION     0.29     1.78     9.47     0  01:38        0.96
  YS02001658           JUNCTION     1.16     2.30     9.44     0  01:32        1.40
  YS02001661           JUNCTION     0.92     2.00     9.41     0  01:33        1.17
  YS02001664           JUNCTION     0.43     0.72     8.64     0  01:33        0.68
  YS02001622           JUNCTION     1.37     1.62     8.52     0  01:31        1.51
  YS02001633           JUNCTION     1.79     1.98     8.43     0  01:32        1.96
  YS02001649           JUNCTION     1.86     2.05     8.44     0  01:33        2.05
  YS02001757           JUNCTION     1.99     2.21     8.47     0  02:39        2.21
  YS02001895           JUNCTION     0.76     1.61     8.35     0  01:36        1.56
  YS02001625           JUNCTION     1.65     1.78     8.38     0  01:31        1.78
  YS02163301           JUNCTION     1.73     1.90     8.42     0  01:32        1.89
  YS02163601           JUNCTION     1.84     2.03     8.43     0  01:32        2.00
  YS02164001           JUNCTION     1.78     1.96     8.42     0  01:32        1.93
  YS02001647           JUNCTION     1.64     1.81     8.42     0  01:39        1.79
  YSB1154              JUNCTION     0.30     0.61     9.67     0  01:34        0.61
  YSB6556              JUNCTION     0.19     0.50     9.67     0  01:34        0.50
  YSB1174              JUNCTION     0.25     0.56     9.67     0  01:34        0.56
  YSB1171              JUNCTION     0.45     0.76     9.67     0  01:34        0.76
  YS02006553           JUNCTION     1.18     2.10     8.38     0  01:36        1.97
  YS02006561           JUNCTION     0.50     1.82     8.48     0  01:36        1.09
  YS02006556           JUNCTION     1.15     2.20     8.51     0  01:36        1.93
  YS02006558           JUNCTION     1.19     2.29     8.56     0  01:36        1.98
  YS02001783           JUNCTION     0.81     2.18     8.32     0  01:36        1.48
  YS02001784           JUNCTION     0.82     2.04     8.11     0  01:36        1.43
  YS02001786           JUNCTION     0.77     2.23     8.26     0  01:35        1.26
  YS02001788           JUNCTION     0.72     2.28     8.26     0  01:35        1.13
  YS02001790           JUNCTION     0.93     1.96     7.60     0  01:35        1.29
  YS02001791           JUNCTION     0.98     2.35     7.82     0  01:35        1.28
  YS02001793           JUNCTION     1.47     2.21     7.04     0  01:34        1.80
  WS02004139           JUNCTION     0.41     0.58     5.49     0  01:41        0.57
  WSC                  OUTFALL      0.25     0.40     1.07     0  01:45        0.40
  3                    OUTFALL      0.05     0.20     6.20     0  07:40        0.20
  4                    OUTFALL      0.01     0.17     7.17     0  01:32        0.14
  5                    OUTFALL      0.00     0.00     5.00     0  00:00        0.00
  JK-storage           STORAGE      5.21     5.80     6.60     0  01:35        5.80
  CC-storage           STORAGE      1.23     1.47     8.47     0  02:34        1.47
  XR-storage           STORAGE      7.67     7.72     5.72     0  00:51        7.72
  
  
  *******************
  Node Inflow Summary
  *******************
  
  -------------------------------------------------------------------------------------------------
                                  Maximum  Maximum                  Lateral       Total        Flow
                                  Lateral    Total  Time of Max      Inflow      Inflow     Balance
                                   Inflow   Inflow   Occurrence      Volume      Volume       Error
  Node                 Type           LPS      LPS  days hr:min    10^6 ltr    10^6 ltr     Percent
  -------------------------------------------------------------------------------------------------
  WS02001211           JUNCTION      7.35   184.86     0  03:30       0.207        1.66       0.997
  WS02001212           JUNCTION      0.00   176.24     0  03:31           0        1.65       0.520
  WS02001213           JUNCTION      0.00   175.13     0  03:32           0        1.65       0.941
  WS02003069           JUNCTION      0.32   964.52     0  01:43     0.00902        10.4       0.200
  WS02003072           JUNCTION      0.00   962.68     0  01:43           0        10.4       0.260
  WS02003073           JUNCTION      1.82   965.01     0  01:44      0.0514        10.4       0.278
  WS02003060           JUNCTION     16.53   965.38     0  01:42       0.466        10.5       0.192
  WS02003066           JUNCTION      0.00   859.58     0  01:39           0        8.39       0.058
  WS02003059           JUNCTION      0.00   177.29     0  03:32           0        1.65       1.864
  WS02003067           JUNCTION      0.00   859.42     0  01:39           0         8.4       0.120
  WS02004401           JUNCTION      0.00   870.28     0  01:36           0        8.66       0.267
  WS02004402           JUNCTION      0.00   870.36     0  01:36           0        8.63       0.249
  WS02004403           JUNCTION      0.00   870.21     0  01:36           0        8.61       0.225
  WS02004404           JUNCTION      0.16   870.86     0  01:36     0.00457         8.6       0.167
  WS02004406           JUNCTION      0.00   870.96     0  01:36           0        8.56       0.410
  WS02004409           JUNCTION      0.00   870.17     0  01:36           0        8.52       0.218
  WS02004410           JUNCTION      0.00   862.02     0  01:38           0         8.5       0.243
  WS02004411           JUNCTION      0.00   859.52     0  01:38           0        8.48       0.247
  WS02004412           JUNCTION      0.00   860.46     0  01:38           0        8.46       0.263
  WS02004413           JUNCTION      0.00   859.75     0  01:39           0        8.44       0.385
  WS02004405           JUNCTION      0.04   871.43     0  01:36     0.00107        8.58       0.251
  WS02006109           JUNCTION      1.23   851.44     0  01:33      0.0347        8.63       0.192
  WS02006110           JUNCTION      0.00   851.36     0  01:33           0        8.61       0.249
  WS02006111           JUNCTION      0.00   858.97     0  01:32           0        8.58       0.051
  WS02006112           JUNCTION     34.22   870.95     0  01:36       0.151        8.73       0.348
  WS02006113           JUNCTION      0.00   851.28     0  01:33           0        8.59       0.131
  WS02006115           JUNCTION      0.00   870.97     0  01:36           0         8.7       0.265
  WS02006116           JUNCTION      0.00   870.49     0  01:36           0        8.68       0.217
  WS02006230           JUNCTION     10.28   392.58     0  05:52        0.29        4.62       0.263
  WS02006231           JUNCTION      0.00   384.60     0  05:52           0        4.32       0.300
  WS02006232           JUNCTION      0.00   384.65     0  05:52           0        4.31       0.384
  WS02006234           JUNCTION      0.00   385.55     0  05:52           0         4.3       0.236
  WS02006235           JUNCTION      0.00   387.53     0  05:51           0        4.48       0.198
  WS02006238           JUNCTION      0.00   305.85     0  05:52           0        3.39       0.222
  WS02006240           JUNCTION      0.00   320.13     0  07:31           0        3.37       0.392
  WS02006242           JUNCTION      0.00   334.70     0  07:31           0        3.37       0.483
  WS02006243           JUNCTION      0.00   343.21     0  07:31           0        3.37       0.236
  WS02006245           JUNCTION      0.00   347.53     0  07:31           0        3.38       0.388
  WS02006247           JUNCTION      0.00   351.36     0  07:31           0        3.39       0.214
  WS02006248           JUNCTION      0.00   355.03     0  07:30           0        3.39       0.068
  WS02006249           JUNCTION      0.00   392.50     0  05:50           0        3.63       0.372
  WS02006239           JUNCTION      0.00   307.06     0  05:51           0        3.37       0.188
  WS02006251           JUNCTION      0.08   400.32     0  07:30     0.00217        3.66       0.230
  WS02006252           JUNCTION      0.00   399.95     0  05:50           0        2.81       0.017
  WS02006253           JUNCTION      4.74   178.63     0  01:36      0.0174       0.856       0.454
  WS02006256           JUNCTION      0.00   600.00     0  07:40           0        2.68       0.110
  WS02004138           JUNCTION      0.00   189.92     0  03:30           0        1.45       0.014
  WS02004407           JUNCTION      0.00   871.45     0  01:36           0        8.53       0.097
  WS02006228           JUNCTION      0.00   850.19     0  01:33           0        8.61       0.159
  WS02006229           JUNCTION      0.00   855.14     0  01:33           0        8.68       0.177
  WS02006280           JUNCTION      0.00   821.13     0  01:36           0        4.12       0.001
  WS02006284           JUNCTION      0.10   821.10     0  01:36      0.0027        4.12       0.018
  WS02006287           JUNCTION      0.00   820.96     0  01:36           0        4.12       0.018
  WSF200               JUNCTION      0.00   859.74     0  01:39           0        8.39       0.052
  HS02004901           JUNCTION     41.69    41.69     0  01:31       0.183       0.183       0.972
  HS02004881           JUNCTION     17.57   174.51     0  01:36      0.0714       0.818       0.064
  HS02004876           JUNCTION     30.53   157.86     0  01:36       0.139       0.747       0.075
  HS02004870           JUNCTION     32.08   127.65     0  01:36       0.135       0.609       0.018
  HS02004862           JUNCTION     28.49    96.84     0  01:37       0.155       0.474       0.037
  HS02004856           JUNCTION     23.95    68.40     0  01:36       0.102        0.32       0.451
  HS02004852           JUNCTION      0.00    45.40     0  01:37           0       0.218       0.028
  HS02004848           JUNCTION     61.76    61.76     0  01:40       0.354       0.354       0.014
  HS02004842           JUNCTION      0.00    18.52     0  01:52           0       0.149       9.567
  HS02004837           JUNCTION     59.75    74.34     0  01:37       0.414        0.55       0.146
  HS02004830           JUNCTION      0.15    74.45     0  01:37     0.00423        0.54       0.229
  HS02004824           JUNCTION     72.88   147.21     0  01:41        0.43       0.969       0.056
  HS02004817           JUNCTION      0.60   150.28     0  01:40      0.0169       0.985       1.721
  HS02004807           JUNCTION     59.71   204.78     0  01:38       0.248        1.22       0.359
  HS02004802           JUNCTION      0.00   204.80     0  01:39           0        1.22       0.327
  HS02004799           JUNCTION     47.08   525.52     0  01:33       0.202         2.5       0.119
  HS02004792           JUNCTION    203.19   478.63     0  01:33       0.982         2.3       0.017
  HS02004788           JUNCTION     66.25   277.11     0  01:34       0.351        1.32       0.029
  HS02004785           JUNCTION      0.15   210.95     0  01:33     0.00423       0.971       0.053
  HS02004777           JUNCTION      0.03   211.17     0  01:32    0.000846       0.971       0.540
  HS02004770           JUNCTION    171.10   212.05     0  01:32       0.791       0.973       0.316
  HS02004480           JUNCTION      0.00   623.61     0  01:34           0        2.92       0.035
  HS02004479           JUNCTION      0.00    98.35     0  01:34           0       0.432       0.172
  HS02004478           JUNCTION      0.00   820.95     0  01:35           0        4.12       0.008
  YS02001745           JUNCTION    635.50   635.50     0  03:01        5.48        5.48       0.211
  YS02001748           JUNCTION      0.04   636.47     0  03:01     0.00127        5.47       0.408
  YS02001751           JUNCTION      0.01   636.52     0  03:01     0.00031        5.45       0.441
  YS02001754           JUNCTION      0.26   636.80     0  03:01     0.00733        5.44       0.444
  YS02001762           JUNCTION      0.00   391.13     0  01:42           0         3.3       0.638
  YS02001765           JUNCTION      0.00   390.96     0  01:42           0         3.3       0.737
  YS02001767           JUNCTION      0.54   391.01     0  01:42      0.0151        3.32       1.082
  YS02001770           JUNCTION    726.70  1084.98     0  03:01           6        7.99       0.391
  YS02001774           JUNCTION      0.00   851.17     0  03:11           0        6.34       0.393
  YS02001779           JUNCTION      0.01   851.17     0  03:11    0.000141        6.32       0.241
  YS02001882           JUNCTION      0.00    43.39     0  01:34           0       0.025       8.610
  YS02001884           JUNCTION      0.00    56.94     0  01:32           0      0.0618      10.308
  YS02001759           JUNCTION    688.01   891.08     0  01:46        5.55        6.83       0.331
  YS02001887           JUNCTION    787.85   787.85     0  03:01        6.23        6.26       0.129
  YS02001890           JUNCTION      0.00   787.89     0  03:01           0        6.22       0.148
  YS02001898           JUNCTION      0.00   558.72     0  01:37           0        5.24       0.028
  YS02001901           JUNCTION      0.00   559.69     0  01:37           0        5.24       0.138
  YS02001904           JUNCTION      0.00   560.49     0  01:37           0        5.24       0.105
  YS02001907           JUNCTION      0.00  1384.49     0  03:01           0        13.2       0.175
  YS02001910           JUNCTION      0.00   868.08     0  03:01           0        7.98       0.140
  YS02001915           JUNCTION    536.93   868.05     0  03:01        4.53        8.03       0.078
  YS02001918           JUNCTION      0.00   391.41     0  01:38           0        3.54       0.044
  YS02001619           JUNCTION    541.58   541.58     0  03:01        4.58        4.58       0.265
  YS02001629           JUNCTION      0.00   397.62     0  01:31           0        1.87       1.517
  YS02001641           JUNCTION      0.00   454.95     0  01:32           0        5.95       0.353
  YS02001644           JUNCTION    611.54  1882.08     0  03:01         5.3        18.9       0.137
  YS02001652           JUNCTION      0.00   607.56     0  03:01           0        4.73       0.478
  YS02001655           JUNCTION      0.15   607.54     0  03:01     0.00434        4.76       0.532
  YS02001920           JUNCTION      2.87   391.03     0  01:38      0.0809        3.52       0.082
  YS02001923           JUNCTION      0.04   367.35     0  01:37     0.00106        3.42       0.030
  YS02001926           JUNCTION      0.05   330.41     0  03:01     0.00147        3.39       0.100
  YS02001929           JUNCTION    330.66   370.88     0  01:37        3.37        3.37       0.013
  YS02001658           JUNCTION      0.00   607.36     0  03:01           0        4.78       0.469
  YS02001661           JUNCTION      0.00   806.06     0  01:48           0        5.28       0.077
  YS02001664           JUNCTION    606.27   606.27     0  03:01        4.78        5.29       0.098
  YS02001622           JUNCTION      0.00   541.61     0  03:01           0        4.57       0.692
  YS02001633           JUNCTION    625.57   625.57     0  03:01        5.46        6.65       0.482
  YS02001649           JUNCTION      0.00  1413.90     0  03:01           0        10.7       0.343
  YS02001757           JUNCTION      0.00  2167.60     0  01:46           0          12       0.757
  YS02001895           JUNCTION      0.00   558.09     0  01:37           0        5.25       0.111
  YS02001625           JUNCTION      0.00   743.63     0  03:01           0        5.19       0.772
  YS02163301           JUNCTION      0.00   316.65     0  01:30           0        1.87       1.294
  YS02163601           JUNCTION      0.11   454.47     0  01:32      0.0031        5.95       0.504
  YS02164001           JUNCTION      0.00   454.85     0  01:32           0        5.94       0.335
  YS02001647           JUNCTION      0.00   846.70     0  02:48           0         8.5       0.333
  YSB1154              JUNCTION     54.28    54.28     0  01:34       0.243       0.243       0.595
  YSB6556              JUNCTION      0.00    54.37     0  01:35           0       0.244       0.519
  YSB1174              JUNCTION     46.17    46.17     0  01:30       0.181       0.181       0.712
  YSB1171              JUNCTION      0.00    98.46     0  01:34           0       0.431       1.496
  YS02006553           JUNCTION      0.00   699.94     0  03:51           0        7.64       0.195
  YS02006561           JUNCTION      0.00  1033.73     0  01:35           0        13.4       0.002
  YS02006556           JUNCTION      0.00   700.42     0  03:51           0        7.65       0.130
  YS02006558           JUNCTION    724.98  1034.33     0  01:35         5.8        13.4       0.038
  YS02001783           JUNCTION      0.00  1011.17     0  01:35           0        13.4       0.020
  YS02001784           JUNCTION      1.06  1012.35     0  01:35      0.0299        13.4       0.032
  YS02001786           JUNCTION      0.06  1012.86     0  01:35     0.00159        13.4       0.028
  YS02001788           JUNCTION      0.07   982.05     0  01:35       0.002        13.4       0.014
  YS02001790           JUNCTION      0.15   974.17     0  03:01     0.00437        13.4       0.019
  YS02001791           JUNCTION      0.00   974.17     0  03:01           0        13.4       0.006
  YS02001793           JUNCTION      0.00   974.17     0  03:01           0        13.4       0.000
  WS02004139           JUNCTION      0.32   189.28     0  00:30     0.00905        1.47       1.142
  WSC                  OUTFALL       0.00   965.72     0  01:45           0        10.4       0.000
  3                    OUTFALL       0.00   495.06     0  07:40           0        1.56       0.000
  4                    OUTFALL       0.00   254.20     0  01:32           0       0.228       0.000
  5                    OUTFALL       0.00     0.00     0  00:00           0           0       0.000 ltr
  JK-storage           STORAGE       0.00  1021.25     0  01:34           0        13.6      -0.198
  CC-storage           STORAGE       0.00  2167.96     0  01:46           0        6.71       0.891
  XR-storage           STORAGE    1408.02  1408.02     0  03:01        16.7        17.3       0.002
  
  
  **********************
  Node Surcharge Summary
  **********************
  
  Surcharging occurs when water rises above the top of the highest conduit.
  ---------------------------------------------------------------------
                                               Max. Height   Min. Depth
                                   Hours       Above Crown    Below Rim
  Node                 Type      Surcharged         Meters       Meters
  ---------------------------------------------------------------------
  WS02004401           JUNCTION        0.81          0.237        1.423
  WS02004402           JUNCTION        0.88          0.250        1.490
  WS02004403           JUNCTION        0.90          0.276        1.754
  WS02004404           JUNCTION        1.71          0.318        2.462
  WS02004406           JUNCTION        1.47          0.229        2.221
  WS02004405           JUNCTION        1.70          0.270        2.530
  WS02006109           JUNCTION        2.14          0.541        1.279
  WS02006110           JUNCTION        1.81          0.287        1.563
  WS02006112           JUNCTION        1.87          0.495        1.185
  WS02006115           JUNCTION        0.42          0.356        1.894
  WS02006116           JUNCTION        0.51          0.313        1.977
  WS02006230           JUNCTION        1.36          1.372        0.198
  WS02006231           JUNCTION        1.44          1.149        0.381
  WS02006232           JUNCTION        2.12          1.022        0.458
  WS02006234           JUNCTION        1.33          0.792        0.448
  WS02006235           JUNCTION        1.47          0.798        0.492
  WS02006238           JUNCTION        1.71          0.807        0.623
  WS02006240           JUNCTION        0.90          1.179        0.211
  WS02006242           JUNCTION        1.05          0.820        0.000
  WS02006243           JUNCTION        0.42          0.770        0.000
  WS02006245           JUNCTION        0.14          0.645        0.205
  WS02006247           JUNCTION        0.11          0.760        0.000
  WS02006248           JUNCTION        0.01          0.170        0.210
  WS02006239           JUNCTION        1.10          1.071        0.219
  WS02006252           JUNCTION        0.45          0.190        0.910
  WS02006228           JUNCTION        2.10          0.665        1.535
  HS02004817           JUNCTION        0.32          0.038        1.702
  YS02001745           JUNCTION        0.68          0.054        1.296
  YS02001748           JUNCTION        6.29          1.161        0.029
  YS02001751           JUNCTION        6.30          1.200        0.000
  YS02001754           JUNCTION        6.31          1.075        0.075
  YS02001762           JUNCTION        6.34          1.071        0.079
  YS02001765           JUNCTION        6.34          1.015        0.085
  YS02001767           JUNCTION        6.33          0.971        0.059
  YS02001770           JUNCTION        6.33          0.920        0.000
  YS02001774           JUNCTION        6.34          1.009        0.041
  YS02001779           JUNCTION        6.31          0.680        0.000
  YS02001882           JUNCTION        2.58          0.769        0.061
  YS02001884           JUNCTION        2.61          0.782        0.088
  YS02001759           JUNCTION        6.35          1.123        0.087
  YS02001887           JUNCTION        2.68          0.816        0.134
  YS02001890           JUNCTION        2.71          0.760        0.000
  YS02001898           JUNCTION        2.54          0.596        0.144
  YS02001901           JUNCTION        2.65          0.723        0.147
  YS02001904           JUNCTION        2.63          0.661        0.189
  YS02001907           JUNCTION        3.07          0.950        0.000
  YS02001910           JUNCTION        2.75          0.988        0.112
  YS02001915           JUNCTION        2.57          0.926        0.074
  YS02001918           JUNCTION        2.36          0.810        0.000
  YS02001619           JUNCTION        6.31          0.610        0.000
  YS02001629           JUNCTION        6.31          0.470        0.000
  YS02001641           JUNCTION        6.34          0.958        0.142
  YS02001644           JUNCTION        6.34          0.920        0.000
  YS02001652           JUNCTION        6.31          1.084        0.046
  YS02001655           JUNCTION        6.30          1.200        0.000
  YS02001920           JUNCTION        2.40          1.140        0.000
  YS02001923           JUNCTION        0.01          0.820        0.000
  YS02001926           JUNCTION        0.01          0.900        0.000
  YS02001929           JUNCTION        0.01          0.780        0.000
  YS02001658           JUNCTION        6.29          1.300        0.000
  YS02001661           JUNCTION        1.22          0.932        0.458
  YS02001622           JUNCTION        6.31          0.620        0.000
  YS02001633           JUNCTION        6.33          0.958        0.102
  YS02001649           JUNCTION        6.34          1.050        0.000
  YS02001757           JUNCTION        6.36          1.210        0.000
  YS02001895           JUNCTION        2.55          0.607        0.143
  YS02001625           JUNCTION        6.32          0.780        0.000
  YS02163301           JUNCTION        6.33          0.902        0.128
  YS02163601           JUNCTION        6.34          1.031        0.049
  YS02164001           JUNCTION        6.33          0.961        0.139
  YS02001647           JUNCTION        6.32          0.809        0.091
  YS02006553           JUNCTION        3.12          1.097        0.093
  YS02006561           JUNCTION        2.47          1.023        0.127
  YS02006556           JUNCTION        2.90          1.161        0.189
  YS02006558           JUNCTION        2.88          1.189        0.211
  YS02001783           JUNCTION        2.93          1.379        0.221
  YS02001784           JUNCTION        3.02          1.240        0.250
  YS02001786           JUNCTION        2.90          1.430        0.000
  YS02001788           JUNCTION        2.89          1.480        0.000
  YS02001790           JUNCTION        5.29          1.157        0.000
  YS02001791           JUNCTION        5.43          1.548        0.372
  YS02001793           JUNCTION        5.67          1.209        1.391
  
  
  *********************
  Node Flooding Summary
  *********************
  
  Flooding refers to all water that overflows a node, whether it ponds or not.
  --------------------------------------------------------------------------
                                                             Total   Maximum
                                 Maximum   Time of Max       Flood    Ponded
                        Hours       Rate    Occurrence      Volume     Depth
  Node                 Flooded       LPS   days hr:min    10^6 ltr    Meters
  --------------------------------------------------------------------------
  WS02006242              0.01    201.37      0  01:30       0.000     0.000
  WS02006243              0.01    123.09      0  01:31       0.000     0.000
  WS02006247              0.01    117.19      0  01:31       0.000     0.000
  YS02001751              0.01     23.48      0  01:32       0.000     0.000
  YS02001770              0.76    233.76      0  03:01       0.295     0.000
  YS02001779              4.57    851.17      0  03:11       6.299     0.000
  YS02001890              1.66    271.47      0  03:01       0.963     0.000
  YS02001907              2.20   1136.82      0  03:01       5.551     0.000
  YS02001918              0.01     91.39      0  01:38       0.000     0.000
  YS02001619              0.01     87.84      0  01:31       0.000     0.000
  YS02001629              0.01    388.28      0  01:31       0.005     0.000
  YS02001644              6.03   1882.06      0  03:01      18.001     0.000
  YS02001655              0.01     61.36      0  01:32       0.000     0.000
  YS02001920              0.01     23.27      0  01:38       0.000     0.000
  YS02001923              0.01    124.50      0  01:38       0.000     0.000
  YS02001926              0.01     75.28      0  01:38       0.000     0.000
  YS02001929              0.01    228.63      0  01:38       0.000     0.000
  YS02001658              0.01    263.50      0  01:32       0.000     0.000
  YS02001622              0.01     85.85      0  01:31       0.000     0.000
  YS02001649              1.10    567.19      0  03:01       1.340     0.000
  YS02001757              0.17     21.66      0  02:56       0.008     0.000
  YS02001625              2.86    743.62      0  03:01       3.936     0.000
  YS02001786              0.01     29.05      0  01:35       0.000     0.000
  YS02001788              0.01    141.08      0  01:35       0.000     0.000
  YS02001790              0.01    198.63      0  01:35       0.000     0.000
  JK-storage              5.06    974.17      0  03:01      11.032     0.000
  XR-storage              6.97   1407.95      0  03:01      14.941     0.000
  
  
  **********************
  Storage Volume Summary
  **********************
  
  --------------------------------------------------------------------------------------------------
                         Average     Avg  Evap Exfil       Maximum     Max    Time of Max    Maximum
                          Volume    Pcnt  Pcnt  Pcnt        Volume    Pcnt     Occurrence    Outflow
  Storage Unit           1000 m3    Full  Loss  Loss       1000 m3    Full    days hr:min        LPS
  --------------------------------------------------------------------------------------------------
  JK-storage               0.262      90     0     0         0.291     100       0  01:35     600.00
  CC-storage               3.417      22     0     0         4.105      26       0  02:34     399.95
  XR-storage               0.920      99     0     0         0.926     100       0  00:51     189.92
  
  
  ***********************
  Outfall Loading Summary
  ***********************
  
  -----------------------------------------------------------
                         Flow       Avg       Max       Total
                         Freq      Flow      Flow      Volume
  Outfall Node           Pcnt       LPS       LPS    10^6 ltr
  -----------------------------------------------------------
  WSC                  100.00    409.64    965.72      10.398
  3                     53.05    143.14    495.06       1.559
  4                     20.41     46.89    254.20       0.228
  5                      0.00      0.00      0.00       0.000
  -----------------------------------------------------------
  System                43.36    599.67   1102.28      12.185
  
  
  ********************
  Link Flow Summary
  ********************
  
  -----------------------------------------------------------------------------
                                 Maximum  Time of Max   Maximum    Max/    Max/
                                  |Flow|   Occurrence   |Veloc|    Full    Full
  Link                 Type          LPS  days hr:min     m/sec    Flow   Depth
  -----------------------------------------------------------------------------
  WS02003066WSF200     CONDUIT    859.74     0  01:39      3.20    0.15    0.29
  WS02006287WS02006284 CONDUIT    821.01     0  01:36      2.53    0.38    0.43
  WS02006284WS02006280 CONDUIT    821.13     0  01:36      2.76    0.34    0.40
  WS02006280WS02006229 CONDUIT    821.21     0  01:36      4.41    0.18    0.33
  WS02006229WS02006228 CONDUIT    850.19     0  01:33      1.69    2.82    1.00
  WS02006256WS02006235 CONDUIT    149.96     0  00:15      2.14    1.59    1.00
  WS02006253WS02006251 CONDUIT    194.00     0  01:33      0.69    0.58    0.91
  WS02006252WS02006251 CONDUIT    400.24     0  07:30      3.19    1.47    1.00
  WS02006251WS02006249 CONDUIT    392.50     0  05:50      1.16    1.13    0.91
  WS02006249WS02006248 CONDUIT    355.03     0  07:30      1.19    1.94    0.92
  WS02006248WS02006247 CONDUIT    351.36     0  07:31      1.18    0.76    1.00
  WS02006247WS02006245 CONDUIT    347.53     0  07:31      1.14    2.76    1.00
  WS02006245WS02006243 CONDUIT    343.21     0  07:31      1.24    1.02    1.00
  WS02006243WS02006242 CONDUIT    334.70     0  07:31      1.11    0.72    1.00
  WS02006242WS02006240 CONDUIT    320.13     0  07:31      0.99    1.27    1.00
  WS02006240WS02006239 CONDUIT    307.06     0  05:51      1.03    0.97    1.00
  WS02006239WS02006238 CONDUIT    305.85     0  05:52      0.90    0.98    1.00
  WS02006238WS02006235 CONDUIT    306.25     0  06:00      0.88    0.68    1.00
  WS02006235WS02006234 CONDUIT    385.55     0  05:52      1.08    4.07    1.00
  WS02006234WS02006232 CONDUIT    384.65     0  05:52      1.00    0.78    1.00
  WS02006232WS02006231 CONDUIT    384.60     0  05:52      1.05    0.81    1.00
  WS02006231WS02006230 CONDUIT    382.30     0  05:52      1.38    5.80    1.00
  WS02006230WS02006229 CONDUIT    391.46     0  05:53      1.02    8.71    1.00
  WS02006228WS02006109 CONDUIT    850.21     0  01:33      1.69    3.71    1.00
  WS02006116WS02004401 CONDUIT    870.28     0  01:36      1.11    1.20    1.00
  WS02006115WS02006116 CONDUIT    870.49     0  01:36      1.11    1.12    1.00
  WS02006113WS02006111 CONDUIT    858.97     0  01:32      2.70    1.03    0.90
  WS02006112WS02006115 CONDUIT    870.97     0  01:36      1.11    0.51    1.00
  WS02006111WS02006112 CONDUIT    838.78     0  01:36      1.94    0.40    0.96
  WS02006110WS02006113 CONDUIT    851.28     0  01:33      1.86    0.77    0.94
  WS02006109WS02006110 CONDUIT    851.36     0  01:33      1.69    1.64    1.00
  WS02004411WS02004412 CONDUIT    860.46     0  01:38      1.19    1.22    0.87
  WS02004401WS02004402 CONDUIT    870.36     0  01:36      1.11    1.04    1.00
  WS02004413WS02003067 CONDUIT    859.42     0  01:39      1.45    0.37    0.71
  WS02004412WS02004413 CONDUIT    859.75     0  01:39      1.13    0.58    0.93
  WS02004410WS02004411 CONDUIT    859.52     0  01:38      1.19    1.17    0.88
  WS02004409WS02004410 CONDUIT    862.02     0  01:38      1.25    1.11    0.89
  WS02004407WS02004409 CONDUIT    870.17     0  01:36      1.84    0.31    0.64
  WS02004406WS02004407 CONDUIT    871.45     0  01:36      1.51    0.39    0.69
  WS02004405WS02004406 CONDUIT    870.96     0  01:36      1.11    1.72    1.00
  WS02004404WS02004405 CONDUIT    871.40     0  01:36      1.11    8.54    1.00
  WS02004403WS02004404 CONDUIT    870.70     0  01:36      1.11    0.63    1.00
  WS02004402WS02004403 CONDUIT    870.21     0  01:36      1.11    1.25    1.00
  WS02004139WS02001211 CONDUIT    177.51     0  03:30      0.53    0.22    0.46
  WS02004138WS02004139 CONDUIT    188.96     0  00:30      2.39    0.04    0.31
  WS02003067WS02003066 CONDUIT    859.58     0  01:39      1.58    0.28    0.49
  WS02001213WS02003059 CONDUIT    177.29     0  03:32      0.44    0.29    0.73
  WS02001212WS02001213 CONDUIT    175.13     0  03:32      0.97    0.27    0.40
  WS02001211WS02001212 CONDUIT    176.24     0  03:31      0.49    0.13    0.52
  WS02003072WS02003073 CONDUIT    963.19     0  01:44      1.74    2.08    0.49
  WS02003069WS02003072 CONDUIT    962.68     0  01:43      1.64    0.46    0.52
  WS02003060WS02003069 CONDUIT    964.20     0  01:43      1.88    0.38    0.46
  WS02003059WS02003060 CONDUIT    179.57     0  03:33      0.60    0.12    0.65
  HS02004901HS02004770 CONDUIT     40.99     0  01:33      0.10    0.15    0.57
  HS02004876HS02004881 CONDUIT    157.88     0  01:36      1.33    1.68    0.17
  HS02004870HS02004876 CONDUIT    127.62     0  01:36      0.90    0.08    0.20
  HS02004842HS02004848 CONDUIT     18.52     0  01:52      0.08    0.01    0.35
  HS02004837HS02004842 CONDUIT     18.98     0  01:52      0.42    0.01    0.36
  HS02004830HS02004837 CONDUIT     74.30     0  01:37      0.68    0.07    0.16
  HS02004824HS02004830 CONDUIT     75.02     0  01:38      0.62    0.10    0.21
  HS02004817HS02004824 CONDUIT    149.68     0  01:40      0.35    0.07    0.62
  HS02004770HS02004777 CONDUIT    211.14     0  01:32      0.52    0.39    0.58
  HS02004799HS02004480 CONDUIT    525.38     0  01:34      1.14    0.66    0.66
  HS02004792HS02004799 CONDUIT    478.54     0  01:33      1.27    0.29    0.54
  HS02004788HS02004792 CONDUIT    277.00     0  01:34      1.34    0.18    0.30
  HS02004785HS02004788 CONDUIT    210.88     0  01:34      0.96    1.59    0.31
  HS02004777HS02004785 CONDUIT    210.80     0  01:33      0.62    0.26    0.49
  HS02004480HS02004478 CONDUIT    623.56     0  01:34      1.66    2.63    0.54
  HS02004479HS02004480 CONDUIT     98.63     0  01:35      0.34    0.10    0.63
  HS02004862HS02004870 CONDUIT     96.84     0  01:37      0.86    0.10    0.16
  HS02004848HS02004852 CONDUIT     45.40     0  01:37      0.56    0.05    0.12
  HS02004856HS02004862 CONDUIT     68.36     0  01:37      0.64    0.07    0.15
  HS02004852HS02004856 CONDUIT     45.49     0  01:38      0.37    0.05    0.18
  HS02004802HS02004478 CONDUIT    205.94     0  01:39      0.56    0.18    0.54
  HS02004478WS02006287 CONDUIT    820.96     0  01:36      2.26    0.23    0.40
  HS02004817HS02004807 CONDUIT    150.54     0  01:40      0.27    0.09    0.79
  HS02004807HS02004802 CONDUIT    204.80     0  01:39      0.50    0.39    0.59
  YS02001759YS02001757 CONDUIT    890.86     0  01:46      1.13    0.63    1.00
  YS02001762YS02001759 CONDUIT    391.10     0  01:42      0.50    0.45    1.00
  YS02001765YS02001762 CONDUIT    391.13     0  01:42      0.50    0.37    1.00
  YS02001770YS02001767 CONDUIT    390.47     0  01:42      0.50    1.55    1.00
  YS02001774YS02001770 CONDUIT    851.17     0  03:11      1.08    0.54    1.00
  YS02001779YS02001774 CONDUIT    851.17     0  03:11      1.08    0.43    1.00
  YS02001649YS02001757 CONDUIT    912.97     0  01:45      1.16    0.55    1.00
  YS02001767YS02001765 CONDUIT    390.96     0  01:42      0.50    0.49    1.00
  YS02006561YS02001783 CONDUIT   1011.17     0  01:35      2.26    0.52    1.00
  YS02001783YS02001784 CONDUIT   1011.29     0  01:35      2.01    1.39    1.00
  YS02001784YS02001785 CONDUIT   1012.81     0  01:35      2.05    2.36    1.00
  YS02001788YS02001790 CONDUIT    974.02     0  03:01      2.48    0.72    1.00
  YS02001790YS02001791 CONDUIT    974.17     0  03:01      2.98    1.06    1.00
  YS02001791YS02001793 CONDUIT    974.17     0  03:01      5.87    0.42    1.00
  YS02001910YS02001907 CONDUIT    868.10     0  03:01      1.11    0.49    1.00
  YS02001786YS02001788 CONDUIT    981.98     0  01:35      2.32    1.89    1.00
  YS02001915YS02001910 CONDUIT    868.08     0  03:01      1.11    0.43    1.00
  YS02001918YS02001915 CONDUIT    391.45     0  01:38      0.56    0.22    1.00
  YS02001923YS02001920 CONDUIT    388.16     0  01:38      0.88    0.17    1.00
  YS02001926YS02001923 CONDUIT    333.16     0  03:02      0.95    0.48    1.00
  YS02001929YS02001926 CONDUIT    330.35     0  03:01      1.03    0.16    1.00
  YS02001920YS02001918 CONDUIT    391.41     0  01:38      0.84    0.38    1.00
  YS02001629YS02163301 CONDUIT    300.17     0  01:30      0.38    0.37    1.00
  YS02001619YS02001622 CONDUIT    541.61     0  03:01      0.90    0.80    1.00
  YS02001622YS02001625 CONDUIT    541.69     0  03:01      0.69    0.29    1.00
  YS02001625YS02001629 CONDUIT    306.20     0  01:30      0.45    0.15    1.00
  YS02163301YS02001633 CONDUIT    316.65     0  01:30      0.40    0.30    1.00
  YS02163601YS02164001 CONDUIT    454.85     0  01:32      0.58    0.40    1.00
  YS02164001YS02001641 CONDUIT    454.95     0  01:32      0.58    0.62    1.00
  YS02001641YS02001644 CONDUIT    455.09     0  01:32      0.58    1.47    1.00
  YS02001647YS02001649 CONDUIT    846.70     0  02:48      1.08    0.45    1.00
  YS02006553YS02006556 CONDUIT    700.42     0  03:51      0.89    0.60    1.00
  YS02006556YS02006558 CONDUIT    701.46     0  03:51      0.89    0.55    1.00
  YSB6556YSB1171       CONDUIT     54.78     0  01:35      0.16    0.06    0.86
  YS02001907YS02006553 CONDUIT    699.94     0  03:51      0.78    0.82    1.00
  YS02006558YS02006561 CONDUIT   1033.73     0  01:35      3.74    2.28    1.00
  YS02001633YS02163601 CONDUIT    454.36     0  01:32      0.58    0.48    1.00
  YS02001644YS02001647 CONDUIT    846.70     0  02:48      1.08    0.50    1.00
  YS02001745YS02001748 CONDUIT    636.42     0  03:01      1.90    0.24    1.00
  YS02001748YS02001751 CONDUIT    636.51     0  03:01      1.44    0.32    1.00
  YS02001751YS02001754 CONDUIT    636.54     0  03:01      1.17    0.31    1.00
  YS02001754YS02001757 CONDUIT    636.82     0  03:01      0.81    0.26    1.00
  YS02001882YS02001884 CONDUIT     43.39     0  01:34      0.18    0.05    1.00
  YS02001884YS02001887 CONDUIT     56.94     0  01:32      0.14    0.08    1.00
  YS02001890YS02001895 CONDUIT    558.09     0  01:37      0.71    0.26    1.00
  YS02001895YS02001898 CONDUIT    558.72     0  01:37      0.71    0.97    1.00
  YS02001898YS02001901 CONDUIT    559.69     0  01:37      0.71    0.36    1.00
  YS02001901YS02001904 CONDUIT    560.49     0  01:37      0.71    0.87    1.00
  YS02001904YS02001907 CONDUIT    560.99     0  01:37      0.71    0.20    1.00
  YS02001887YS02001890 CONDUIT    787.89     0  03:01      1.00    1.35    1.00
  YS02001652YS02001649 CONDUIT    607.57     0  03:01      0.77    0.30    1.00
  YS02001655YS02001652 CONDUIT    607.56     0  03:01      1.26    0.30    1.00
  YS02001658YS02001655 CONDUIT    607.39     0  03:01      1.67    0.26    1.00
  YS02001661YS02001658 CONDUIT    607.36     0  03:01      2.02    0.24    1.00
  YS02001664YS02001661 CONDUIT    806.06     0  01:48      1.90    0.25    0.86
  YSB1154YSB6556       CONDUIT     54.37     0  01:35      0.17    0.10    0.79
  YSB1174YSB1171       CONDUIT     45.32     0  01:31      0.13    0.07    0.90
  YSB1171HS02004479    CONDUIT     98.35     0  01:34      0.54    0.07    0.73
  HS02004881HS02006253 CONDUIT    174.51     0  01:36      2.50    0.03    0.28
  YS02001793JiankangQianchi CONDUIT   1021.25     0  01:34      5.08    0.08    1.00
  YS02001757CaochengTiaoxuchi CONDUIT   2167.96     0  01:46      3.83    0.95    1.00
  WSF200WS02003060     CONDUIT    866.28     0  01:38      2.38    0.19    0.38
  1                    CONDUIT    965.72     0  01:45      3.30    0.34    0.40
  2                    CONDUIT    254.20     0  01:32      6.19    0.61    0.58
  3                    CONDUIT    495.06     0  07:40      9.78    0.79    0.67
  4                    CONDUIT      0.00     0  00:00      0.00    0.00    0.00
  CC-Pump-1            PUMP       200.00     0  03:20              1.00
  CC-Pump-2            PUMP       200.00     0  05:00              1.00
  JK-Pump-1            PUMP       300.00     0  02:40              1.00
  JK-Pump-2            PUMP       300.00     0  06:40              1.00
  XR-Pump-1            PUMP        95.00     0  00:00              1.00
  XR-Pump-2            PUMP        94.99     0  05:40              1.00
  XR-Pump-3            PUMP        94.97     0  02:30              1.00
  XR-Pump-4            PUMP        94.99     0  04:30              1.00
  
  
  ***************************
  Flow Classification Summary
  ***************************
  
  -------------------------------------------------------------------------------------
                      Adjusted    ---------- Fraction of Time in Flow Class ---------- 
                       /Actual         Up    Down  Sub   Sup   Up    Down  Norm  Inlet 
  Conduit               Length    Dry  Dry   Dry   Crit  Crit  Crit  Crit  Ltd   Ctrl  
  -------------------------------------------------------------------------------------
  WS02003066WSF200        1.00   0.04  0.00  0.00  0.00  0.96  0.00  0.00  0.60  0.00
  WS02006287WS02006284    1.00   0.04  0.01  0.00  0.58  0.37  0.00  0.00  0.61  0.00
  WS02006284WS02006280    1.00   0.04  0.00  0.00  0.00  0.00  0.00  0.96  0.00  0.00
  WS02006280WS02006229    1.00   0.04  0.00  0.00  0.00  0.03  0.00  0.93  0.00  0.00
  WS02006229WS02006228    1.00   0.00  0.00  0.00  1.00  0.00  0.00  0.00  0.00  0.00
  WS02006256WS02006235    1.00   0.00  0.00  0.00  1.00  0.00  0.00  0.00  0.00  0.00
  WS02006253WS02006251    1.00   0.03  0.02  0.00  0.96  0.00  0.00  0.00  0.00  0.00
  WS02006252WS02006251    1.00   0.06  0.00  0.00  0.00  0.00  0.94  0.00  0.00  0.00
  WS02006251WS02006249    1.00   0.00  0.00  0.00  1.00  0.00  0.00  0.00  0.25  0.00
  WS02006249WS02006248    1.00   0.00  0.00  0.00  0.84  0.00  0.16  0.00  0.00  0.00
  WS02006248WS02006247    1.00   0.00  0.00  0.00  0.98  0.00  0.00  0.02  0.16  0.00
  WS02006247WS02006245    1.00   0.00  0.00  0.00  0.98  0.00  0.00  0.02  0.00  0.00
  WS02006245WS02006243    1.00   0.01  0.00  0.00  0.96  0.00  0.00  0.04  0.02  0.00
  WS02006243WS02006242    1.00   0.01  0.00  0.00  0.99  0.00  0.00  0.00  0.17  0.00
  WS02006242WS02006240    1.00   0.01  0.00  0.00  0.99  0.00  0.00  0.00  0.00  0.00
  WS02006240WS02006239    1.00   0.01  0.00  0.00  0.97  0.00  0.00  0.02  0.01  0.00
  WS02006239WS02006238    1.00   0.00  0.00  0.00  1.00  0.00  0.00  0.00  0.00  0.00
  WS02006238WS02006235    1.00   0.00  0.00  0.00  1.00  0.00  0.00  0.00  0.00  0.00
  WS02006235WS02006234    1.00   0.00  0.00  0.00  0.98  0.00  0.02  0.00  0.00  0.00
  WS02006234WS02006232    1.00   0.00  0.00  0.00  1.00  0.00  0.00  0.00  0.00  0.00
  WS02006232WS02006231    1.00   0.00  0.00  0.00  0.99  0.00  0.00  0.00  0.00  0.00
  WS02006231WS02006230    1.00   0.01  0.00  0.00  0.44  0.00  0.56  0.00  0.00  0.00
  WS02006230WS02006229    1.00   0.00  0.00  0.00  0.99  0.00  0.00  0.01  0.00  0.00
  WS02006228WS02006109    1.00   0.00  0.00  0.00  1.00  0.00  0.00  0.00  0.00  0.00
  WS02006116WS02004401    1.00   0.03  0.00  0.00  0.97  0.00  0.00  0.00  0.00  0.00
  WS02006115WS02006116    1.00   0.02  0.00  0.00  0.97  0.00  0.00  0.00  0.00  0.00
  WS02006113WS02006111    1.00   0.01  0.00  0.00  0.07  0.92  0.00  0.00  0.14  0.00
  WS02006112WS02006115    1.00   0.02  0.01  0.00  0.97  0.00  0.00  0.00  0.00  0.00
  WS02006111WS02006112    1.00   0.02  0.00  0.00  0.98  0.00  0.00  0.00  0.76  0.00
  WS02006110WS02006113    1.00   0.00  0.01  0.00  0.99  0.00  0.00  0.00  0.00  0.00
  WS02006109WS02006110    1.00   0.00  0.00  0.00  1.00  0.00  0.00  0.00  0.00  0.00
  WS02004411WS02004412    1.00   0.03  0.00  0.00  0.97  0.00  0.00  0.00  0.00  0.00
  WS02004401WS02004402    1.00   0.03  0.00  0.00  0.97  0.00  0.00  0.00  0.00  0.00
  WS02004413WS02003067    1.00   0.03  0.01  0.00  0.00  0.00  0.96  0.00  0.00  0.00
  WS02004412WS02004413    1.00   0.03  0.00  0.00  0.96  0.00  0.00  0.00  0.01  0.00
  WS02004410WS02004411    1.00   0.03  0.00  0.00  0.97  0.00  0.00  0.00  0.00  0.00
  WS02004409WS02004410    1.00   0.03  0.00  0.00  0.97  0.00  0.00  0.00  0.02  0.00
  WS02004407WS02004409    1.00   0.03  0.00  0.00  0.97  0.00  0.00  0.00  0.91  0.00
  WS02004406WS02004407    1.00   0.00  0.03  0.00  0.97  0.00  0.00  0.00  0.00  0.00
  WS02004405WS02004406    1.00   0.00  0.00  0.00  1.00  0.00  0.00  0.00  0.03  0.00
  WS02004404WS02004405    1.00   0.00  0.00  0.00  1.00  0.00  0.00  0.00  0.00  0.00
  WS02004403WS02004404    1.00   0.00  0.03  0.00  0.97  0.00  0.00  0.00  0.00  0.00
  WS02004402WS02004403    1.00   0.03  0.00  0.00  0.97  0.00  0.00  0.00  0.00  0.00
  WS02004139WS02001211    1.00   0.00  0.00  0.00  1.00  0.00  0.00  0.00  0.00  0.00
  WS02004138WS02004139    1.00   0.00  0.03  0.00  0.97  0.00  0.00  0.00  1.00  0.00
  WS02003067WS02003066    1.00   0.04  0.00  0.00  0.96  0.00  0.00  0.00  0.00  0.00
  WS02001213WS02003059    1.00   0.00  0.00  0.00  1.00  0.00  0.00  0.00  0.00  0.00
  WS02001212WS02001213    1.00   0.00  0.00  0.00  0.65  0.00  0.35  0.00  0.00  0.00
  WS02001211WS02001212    1.00   0.00  0.00  0.00  1.00  0.00  0.00  0.00  0.00  0.00
  WS02003072WS02003073    1.00   0.00  0.00  0.00  0.00  0.00  0.00  1.00  0.00  0.00
  WS02003069WS02003072    1.00   0.00  0.00  0.00  1.00  0.00  0.00  0.00  0.64  0.00
  WS02003060WS02003069    1.00   0.00  0.00  0.00  0.98  0.02  0.00  0.00  0.39  0.00
  WS02003059WS02003060    1.00   0.00  0.00  0.00  1.00  0.00  0.00  0.00  0.02  0.00
  HS02004901HS02004770    1.00   0.04  0.00  0.00  0.96  0.00  0.00  0.00  0.00  0.00
  HS02004876HS02004881    1.00   0.00  0.00  0.00  0.73  0.27  0.00  0.00  0.00  0.00
  HS02004870HS02004876    1.00   0.00  0.00  0.00  1.00  0.00  0.00  0.00  0.95  0.00
  HS02004842HS02004848    1.00   0.00  0.04  0.00  0.96  0.00  0.00  0.00  0.54  0.00
  HS02004837HS02004842    1.00   0.00  0.00  0.00  1.00  0.00  0.00  0.00  0.11  0.00
  HS02004830HS02004837    1.00   0.00  0.00  0.00  1.00  0.00  0.00  0.00  0.99  0.00
  HS02004824HS02004830    1.00   0.00  0.00  0.00  1.00  0.00  0.00  0.00  0.03  0.00
  HS02004817HS02004824    1.00   0.00  0.00  0.00  1.00  0.00  0.00  0.00  0.88  0.00
  HS02004770HS02004777    1.00   0.00  0.04  0.00  0.96  0.00  0.00  0.00  0.02  0.00
  HS02004799HS02004480    1.00   0.00  0.01  0.00  0.95  0.00  0.04  0.00  0.00  0.00
  HS02004792HS02004799    1.00   0.00  0.00  0.00  1.00  0.00  0.00  0.00  0.98  0.00
  HS02004788HS02004792    1.00   0.00  0.00  0.00  1.00  0.00  0.00  0.00  0.98  0.00
  HS02004785HS02004788    1.00   0.00  0.00  0.00  1.00  0.00  0.00  0.00  0.00  0.00
  HS02004777HS02004785    1.00   0.00  0.00  0.00  1.00  0.00  0.00  0.00  0.11  0.00
  HS02004480HS02004478    1.00   0.04  0.00  0.00  0.60  0.00  0.00  0.35  0.00  0.00
  HS02004479HS02004480    1.00   0.01  0.00  0.00  0.99  0.00  0.00  0.00  0.11  0.00
  HS02004862HS02004870    1.00   0.00  0.00  0.00  1.00  0.00  0.00  0.00  0.02  0.00
  HS02004848HS02004852    1.00   0.04  0.00  0.00  0.96  0.00  0.00  0.00  0.81  0.00
  HS02004856HS02004862    1.00   0.00  0.05  0.00  0.95  0.00  0.00  0.00  0.84  0.00
  HS02004852HS02004856    1.00   0.04  0.00  0.00  0.96  0.00  0.00  0.00  0.70  0.00
  HS02004802HS02004478    1.00   0.04  0.00  0.00  0.96  0.00  0.00  0.00  0.02  0.00
  HS02004478WS02006287    1.00   0.05  0.00  0.00  0.64  0.31  0.00  0.00  0.58  0.00
  HS02004817HS02004807    1.00   0.00  0.04  0.00  0.96  0.00  0.00  0.00  0.01  0.00
  HS02004807HS02004802    1.00   0.04  0.00  0.00  0.95  0.00  0.00  0.00  0.00  0.00
  YS02001759YS02001757    1.00   0.00  0.00  0.00  1.00  0.00  0.00  0.00  0.15  0.00
  YS02001762YS02001759    1.00   0.00  0.00  0.00  1.00  0.00  0.00  0.00  0.02  0.00
  YS02001765YS02001762    1.00   0.00  0.00  0.00  1.00  0.00  0.00  0.00  0.13  0.00
  YS02001770YS02001767    1.00   0.00  0.00  0.00  1.00  0.00  0.00  0.00  0.00  0.00
  YS02001774YS02001770    1.00   0.00  0.04  0.00  0.96  0.00  0.00  0.00  0.02  0.00
  YS02001779YS02001774    1.00   0.00  0.00  0.00  1.00  0.00  0.00  0.00  0.16  0.00
  YS02001649YS02001757    1.00   0.00  0.00  0.00  1.00  0.00  0.00  0.00  0.15  0.00
  YS02001767YS02001765    1.00   0.00  0.00  0.00  1.00  0.00  0.00  0.00  0.00  0.00
  YS02006561YS02001783    1.00   0.05  0.00  0.00  0.79  0.16  0.00  0.00  0.43  0.00
  YS02001783YS02001784    1.00   0.00  0.05  0.00  0.95  0.00  0.00  0.00  0.00  0.00
  YS02001784YS02001785    1.00   0.00  0.00  0.00  1.00  0.00  0.00  0.00  0.16  0.00
  YS02001788YS02001790    1.00   0.00  0.00  0.00  0.87  0.13  0.00  0.00  0.27  0.00
  YS02001790YS02001791    1.00   0.00  0.00  0.00  0.83  0.17  0.00  0.00  0.08  0.00
  YS02001791YS02001793    1.00   0.00  0.00  0.00  0.86  0.14  0.00  0.00  0.03  0.00
  YS02001910YS02001907    1.00   0.00  0.00  0.00  0.99  0.00  0.00  0.00  0.12  0.00
  YS02001786YS02001788    1.00   0.00  0.00  0.00  0.85  0.15  0.00  0.00  0.00  0.00
  YS02001915YS02001910    1.00   0.00  0.00  0.00  0.99  0.01  0.00  0.00  0.13  0.00
  YS02001918YS02001915    1.00   0.00  0.00  0.00  1.00  0.00  0.00  0.00  0.45  0.00
  YS02001923YS02001920    1.00   0.00  0.00  0.00  1.00  0.00  0.00  0.00  0.64  0.00
  YS02001926YS02001923    1.00   0.00  0.03  0.00  0.34  0.00  0.63  0.00  0.00  0.00
  YS02001929YS02001926    1.00   0.00  0.04  0.00  0.96  0.00  0.00  0.00  0.56  0.00
  YS02001920YS02001918    1.00   0.00  0.00  0.00  1.00  0.00  0.00  0.00  0.00  0.00
  YS02001629YS02163301    1.00   0.05  0.00  0.00  0.95  0.00  0.00  0.00  0.00  0.00
  YS02001619YS02001622    1.00   0.04  0.00  0.00  0.96  0.00  0.00  0.00  0.00  0.00
  YS02001622YS02001625    1.00   0.04  0.00  0.00  0.96  0.00  0.00  0.00  0.03  0.00
  YS02001625YS02001629    1.00   0.04  0.01  0.00  0.94  0.00  0.01  0.00  0.00  0.00
  YS02163301YS02001633    1.00   0.00  0.05  0.00  0.95  0.00  0.00  0.00  0.00  0.00
  YS02163601YS02164001    1.00   0.00  0.03  0.00  0.97  0.00  0.00  0.00  0.00  0.00
  YS02164001YS02001641    1.00   0.00  0.03  0.00  0.97  0.00  0.00  0.00  0.06  0.00
  YS02001641YS02001644    1.00   0.00  0.00  0.00  1.00  0.00  0.00  0.00  0.00  0.00
  YS02001647YS02001649    1.00   0.00  0.05  0.00  0.95  0.00  0.00  0.00  0.01  0.00
  YS02006553YS02006556    1.00   0.00  0.00  0.00  1.00  0.00  0.00  0.00  0.03  0.00
  YS02006556YS02006558    1.00   0.00  0.00  0.00  1.00  0.00  0.00  0.00  0.00  0.00
  YSB6556YSB1171          1.00   0.01  0.03  0.00  0.96  0.00  0.00  0.00  0.00  0.00
  YS02001907YS02006553    1.00   0.00  0.00  0.00  1.00  0.00  0.00  0.00  0.00  0.00
  YS02006558YS02006561    1.00   0.05  0.00  0.00  0.36  0.59  0.00  0.00  0.35  0.00
  YS02001633YS02163601    1.00   0.00  0.00  0.00  1.00  0.00  0.00  0.00  0.15  0.00
  YS02001644YS02001647    1.00   0.00  0.05  0.00  0.95  0.00  0.00  0.00  0.00  0.00
  YS02001745YS02001748    1.00   0.00  0.00  0.00  0.93  0.00  0.00  0.07  0.00  0.00
  YS02001748YS02001751    1.00   0.00  0.00  0.00  0.98  0.02  0.00  0.00  0.13  0.00
  YS02001751YS02001754    1.00   0.00  0.00  0.00  0.95  0.00  0.00  0.05  0.01  0.00
  YS02001754YS02001757    1.00   0.00  0.00  0.00  1.00  0.00  0.00  0.00  0.16  0.00
  YS02001882YS02001884    1.00   0.05  0.00  0.00  0.95  0.00  0.00  0.00  0.00  0.00
  YS02001884YS02001887    1.00   0.03  0.01  0.00  0.96  0.00  0.00  0.00  0.00  0.00
  YS02001890YS02001895    1.00   0.00  0.05  0.00  0.95  0.00  0.00  0.00  0.00  0.00
  YS02001895YS02001898    1.00   0.05  0.00  0.00  0.95  0.00  0.00  0.00  0.00  0.00
  YS02001898YS02001901    1.00   0.05  0.00  0.00  0.95  0.00  0.00  0.00  0.00  0.00
  YS02001901YS02001904    1.00   0.05  0.00  0.00  0.95  0.00  0.00  0.00  0.00  0.00
  YS02001904YS02001907    1.00   0.00  0.05  0.00  0.95  0.00  0.00  0.00  0.00  0.00
  YS02001887YS02001890    1.00   0.00  0.00  0.00  0.99  0.00  0.01  0.00  0.00  0.00
  YS02001652YS02001649    1.00   0.00  0.00  0.00  1.00  0.00  0.00  0.00  0.15  0.00
  YS02001655YS02001652    1.00   0.00  0.00  0.00  0.95  0.00  0.00  0.05  0.01  0.00
  YS02001658YS02001655    1.00   0.00  0.04  0.00  0.94  0.02  0.00  0.00  0.01  0.00
  YS02001661YS02001658    1.00   0.04  0.00  0.00  0.93  0.03  0.00  0.00  0.00  0.00
  YS02001664YS02001661    1.00   0.04  0.00  0.00  0.93  0.02  0.00  0.00  0.07  0.00
  YSB1154YSB6556          1.00   0.04  0.00  0.00  0.96  0.00  0.00  0.00  0.01  0.00
  YSB1174YSB1171          1.00   0.03  0.01  0.00  0.96  0.00  0.00  0.00  0.00  0.00
  YSB1171HS02004479       1.00   0.01  0.00  0.00  0.97  0.00  0.00  0.01  0.10  0.00
  HS02004881HS02006253    1.00   0.02  0.00  0.00  0.57  0.10  0.00  0.31  0.52  0.00
  YS02001793JiankangQianchi    1.00   0.00  0.00  0.00  0.97  0.03  0.00  0.00  0.11  0.00
  YS02001757CaochengTiaoxuchi    1.00   0.00  0.06  0.00  0.91  0.04  0.00  0.00  0.00  0.00
  WSF200WS02003060        1.00   0.00  0.04  0.00  0.10  0.85  0.00  0.00  0.24  0.00
  1                       1.00   0.00  0.00  0.00  0.00  1.00  0.00  0.00  0.29  0.00
  2                       1.00   0.79  0.00  0.00  0.00  0.21  0.00  0.00  0.07  0.00
  3                       1.00   0.47  0.00  0.00  0.00  0.53  0.00  0.00  0.01  0.00
  4                       1.00   1.00  0.00  0.00  0.00  0.00  0.00  0.00  0.00  0.00
  
  
  *************************
  Conduit Surcharge Summary
  *************************
  
  ----------------------------------------------------------------------------
                                                           Hours        Hours 
                         --------- Hours Full --------   Above Full   Capacity
  Conduit                Both Ends  Upstream  Dnstream   Normal Flow   Limited
  ----------------------------------------------------------------------------
  WS02006229WS02006228        2.10      2.24      2.10      3.05         2.09
  WS02006256WS02006235        6.04      6.04      7.46      1.79         0.01
  WS02006252WS02006251        0.16      0.16      0.45      0.37         0.01
  WS02006251WS02006249        0.01      0.01      0.01      0.14         0.01
  WS02006249WS02006248        0.01      0.01      0.01      2.87         0.01
  WS02006248WS02006247        0.01      0.01      0.11      0.01         0.01
  WS02006247WS02006245        0.13      0.14      0.14      3.80         0.02
  WS02006245WS02006243        0.17      0.17      0.42      0.02         0.01
  WS02006243WS02006242        0.48      0.48      1.05      0.01         0.01
  WS02006242WS02006240        0.90      0.90      1.26      0.63         0.01
  WS02006240WS02006239        0.95      0.95      1.10      0.01         0.01
  WS02006239WS02006238        1.38      1.38      1.71      0.01         0.01
  WS02006238WS02006235        1.63      1.63      2.06      0.01         0.02
  WS02006235WS02006234        1.33      1.33      1.47      5.53         0.14
  WS02006234WS02006232        1.53      1.53      2.12      0.01         0.01
  WS02006232WS02006231        1.44      1.44      2.12      0.01         0.01
  WS02006231WS02006230        1.36      1.36      1.63      5.93         0.15
  WS02006230WS02006229        2.58      2.80      2.59      6.35         2.37
  WS02006228WS02006109        2.13      2.37      2.13      4.02         2.13
  WS02006116WS02004401        0.79      0.79      0.81      0.67         0.66
  WS02006115WS02006116        0.49      0.49      0.51      0.36         0.34
  WS02006113WS02006111        0.01      0.01      0.01      0.02         0.01
  WS02006112WS02006115        0.42      0.42      1.87      0.01         0.01
  WS02006111WS02006112        0.01      0.01      3.00      0.01         0.01
  WS02006110WS02006113        0.01      0.01      2.27      0.01         0.01
  WS02006109WS02006110        1.81      1.81      2.37      1.81         0.01
  WS02004411WS02004412        0.01      0.01      0.01      0.75         0.01
  WS02004401WS02004402        0.81      0.81      0.87      0.14         0.14
  WS02004410WS02004411        0.01      0.01      0.01      0.62         0.01
  WS02004409WS02004410        0.01      0.01      0.01      0.36         0.01
  WS02004406WS02004407        0.01      0.01      1.46      0.01         0.01
  WS02004405WS02004406        1.46      1.70      1.46      1.84         1.46
  WS02004404WS02004405        1.70      1.71      1.70      6.26         1.69
  WS02004403WS02004404        0.90      0.90      1.71      0.01         0.01
  WS02004402WS02004403        0.87      0.87      0.90      0.78         0.77
  WS02003072WS02003073        0.01      0.01      0.01      2.27         0.01
  HS02004876HS02004881        0.01      0.01      0.01      0.86         0.01
  HS02004817HS02004824        0.01      0.01      0.32      0.01         0.01
  HS02004785HS02004788        0.01      0.01      0.01      0.81         0.01
  HS02004480HS02004478        0.01      0.01      0.01      1.81         0.01
  HS02004817HS02004807        0.01      0.01      0.32      0.01         0.01
  YS02001759YS02001757        6.35      6.35      6.36      0.01         0.01
  YS02001762YS02001759        6.34      6.34      6.35      0.01         0.01
  YS02001765YS02001762        6.34      6.34      6.34      0.01         0.01
  YS02001770YS02001767        6.33      6.33      6.33      1.51         0.52
  YS02001774YS02001770        6.33      6.33      6.34      0.01         0.01
  YS02001779YS02001774        6.31      6.31      6.34      0.01         0.01
  YS02001649YS02001757        6.34      6.34      6.36      0.01         0.01
  YS02001767YS02001765        6.33      6.33      6.34      0.01         0.01
  YS02006561YS02001783        2.47      2.47      2.93      0.01         0.01
  YS02001783YS02001784        2.92      2.93      3.02      2.81         2.74
  YS02001784YS02001785        2.90      3.02      2.90      3.51         2.90
  YS02001788YS02001790        2.89      2.89      5.29      0.01         0.01
  YS02001790YS02001791        5.29      5.29      5.43      2.33         2.32
  YS02001791YS02001793        5.43      5.43      5.76      0.01         0.01
  YS02001910YS02001907        2.75      2.75      3.07      0.01         0.01
  YS02001786YS02001788        2.89      2.90      2.89      3.19         2.89
  YS02001915YS02001910        2.57      2.57      2.75      0.01         0.01
  YS02001918YS02001915        2.36      2.36      2.57      0.01         0.01
  YS02001923YS02001920        2.17      2.17      2.40      0.01         0.01
  YS02001926YS02001923        0.01      0.01      0.01      0.01         0.01
  YS02001929YS02001926        0.01      0.01      0.01      0.01         0.01
  YS02001920YS02001918        2.36      2.36      2.40      0.01         0.01
  YS02001629YS02163301        6.33      6.33      6.33      0.01         0.01
  YS02001619YS02001622        6.31      6.31      6.31      0.01         0.02
  YS02001622YS02001625        6.31      6.31      6.32      0.01         0.01
  YS02001625YS02001629        6.31      6.31      6.32      0.01         0.01
  YS02163301YS02001633        6.33      6.33      6.33      0.01         0.01
  YS02163601YS02164001        6.33      6.33      6.34      0.01         0.01
  YS02164001YS02001641        6.33      6.33      6.34      0.01         0.02
  YS02001641YS02001644        6.34      6.34      6.34      3.05         3.12
  YS02001647YS02001649        6.32      6.32      6.34      0.01         0.01
  YS02006553YS02006556        2.90      2.90      3.12      0.01         0.01
  YS02006556YS02006558        2.96      2.96      3.15      0.01         0.01
  YSB6556YSB1171              0.01      0.01      0.43      0.01         0.01
  YS02001907YS02006553        3.54      3.54      3.72      0.01         0.01
  YS02006558YS02006561        2.62      2.88      2.62      3.40         2.62
  YS02001633YS02163601        6.33      6.33      6.34      0.01         0.01
  YS02001644YS02001647        6.32      6.32      6.34      0.01         0.01
  YS02001745YS02001748        0.68      0.68      6.28      0.01         0.01
  YS02001748YS02001751        6.29      6.29      6.30      0.01         0.01
  YS02001751YS02001754        6.30      6.30      6.31      0.01         0.01
  YS02001754YS02001757        6.31      6.31      6.36      0.01         0.01
  YS02001882YS02001884        2.58      2.58      2.61      0.01         0.01
  YS02001884YS02001887        2.65      2.65      2.68      0.01         0.01
  YS02001890YS02001895        2.55      2.55      2.76      0.01         0.01
  YS02001895YS02001898        2.54      2.54      2.55      0.01         0.01
  YS02001898YS02001901        2.56      2.56      2.65      0.01         0.01
  YS02001901YS02001904        2.63      2.63      2.65      0.01         0.01
  YS02001904YS02001907        2.63      2.63      3.13      0.01         0.01
  YS02001887YS02001890        2.71      2.71      2.73      1.55         0.01
  YS02001652YS02001649        6.32      6.32      6.34      0.01         0.01
  YS02001655YS02001652        6.30      6.30      6.31      0.01         0.01
  YS02001658YS02001655        6.29      6.29      6.30      0.01         0.01
  YS02001661YS02001658        1.21      1.21      6.29      0.01         0.01
  YS02001664YS02001661        0.01      0.01      2.74      0.01         0.01
  YSB1174YSB1171              0.01      0.01      0.16      0.01         0.01
  YS02001793JiankangQianchi        5.67      5.67      6.68      0.01         0.01
  YS02001757CaochengTiaoxuchi        5.90      5.90      6.36      0.01         0.01
  
  
  ***************
  Pumping Summary
  ***************
  
  ---------------------------------------------------------------------------------------------------------
                                                  Min       Avg       Max     Total     Power    % Time Off
                        Percent   Number of      Flow      Flow      Flow    Volume     Usage    Pump Curve
  Pump                 Utilized   Start-Ups       LPS       LPS       LPS  10^6 ltr     Kw-hr    Low   High
  ---------------------------------------------------------------------------------------------------------
  CC-Pump-1               35.03           5      0.00    139.97    200.00     1.329      0.91    0.0    2.8
  CC-Pump-2               43.54           8      0.00    125.79    200.00     1.476      1.29    0.0    7.0
  JK-Pump-1               21.27           3      0.00    193.91    300.00     0.634      4.21    0.0    0.0
  JK-Pump-2               42.53           8      0.00    183.55    300.00     1.891     12.14    0.0    0.0
  XR-Pump-1               61.70           8      0.00     55.91     95.00     0.998      5.20    0.0    0.0
  XR-Pump-2                4.25           1      0.00     50.92     94.99     0.057      0.25    0.0    0.0
  XR-Pump-3                8.51           2      0.00     44.80     94.97     0.114      0.50    0.0    0.0
  XR-Pump-4               21.28           5      0.00     46.12     94.99     0.285      1.41    0.0    0.0
  

  Analysis begun on:  Thu Jan  6 20:20:58 2022
  Analysis ended on:  Thu Jan  6 20:21:00 2022
  Total elapsed time: 00:00:02