
  EPA STORM WATER MANAGEMENT MODEL - VERSION 5.1 (Build 5.3.0.dev0)
  --------------------------------------------------------------

  WARNING 04: minimum elevation drop used for Conduit WS02004404WS02004405
  WARNING 03: negative offset ignored for Link YS02001904YS02001907
  
  *********************************************************
  NOTE: The summary statistics displayed in this report are
  based on results found at every computational time step,  
  not just on results from each reporting time step.
  *********************************************************
  
  ****************
  Analysis Options
  ****************
  Flow Units ............... LPS
  Process Models:
    Rainfall/Runoff ........ YES
    RDII ................... NO
    Snowmelt ............... NO
    Groundwater ............ NO
    Flow Routing ........... YES
    Ponding Allowed ........ NO
    Water Quality .......... NO
  Infiltration Method ...... HORTON
  Flow Routing Method ...... DYNWAVE
  Surcharge Method ......... EXTRAN
  Starting Date ............ 08/28/2015 08:00:00
  Ending Date .............. 08/28/2015 15:50:00
  Antecedent Dry Days ...... 8.0
  Report Time Step ......... 00:01:00
  Wet Time Step ............ 00:01:00
  Dry Time Step ............ 00:01:00
  Routing Time Step ........ 5.00 sec
  Variable Time Step ....... YES
  Maximum Trials ........... 8
  Number of Threads ........ 4
  Head Tolerance ........... 0.001500 m
  
  
  **************************        Volume         Depth
  Runoff Quantity Continuity     hectare-m            mm
  **************************     ---------       -------
  Total Precipitation ......        10.887        23.836
  Evaporation Loss .........         0.000         0.000
  Infiltration Loss ........         2.344         5.132
  Surface Runoff ...........         7.303        15.990
  Final Storage ............         1.241         2.717
  Continuity Error (%) .....        -0.012
  
  
  **************************        Volume        Volume
  Flow Routing Continuity        hectare-m      10^6 ltr
  **************************     ---------     ---------
  Dry Weather Inflow .......         0.616         6.165
  Wet Weather Inflow .......         7.302        73.020
  Groundwater Inflow .......         0.000         0.000
  RDII Inflow ..............         0.000         0.000
  External Inflow ..........         0.102         1.024
  External Outflow .........         1.134        11.336
  Flooding Loss ............         6.290        62.902
  Evaporation Loss .........         0.000         0.000
  Exfiltration Loss ........         0.000         0.000
  Initial Stored Volume ....         0.076         0.761
  Final Stored Volume ......         0.674         6.736
  Continuity Error (%) .....        -0.006
  
  
  *************************
  Highest Continuity Errors
  *************************
  Node YS02001884 (10.35%)
  Node HS02004842 (8.73%)
  Node HS02004817 (1.69%)
  Node WS02003059 (1.66%)
  Node WS02004139 (1.64%)
  
  
  ***************************
  Time-Step Critical Elements
  ***************************
  Link WS02006252WS02006251 (44.25%)
  Link 3 (36.95%)
  Link YS02006556YS02006558 (4.96%)
  Link WS02006238WS02006235 (3.30%)
  Link WS02006280WS02006229 (2.72%)
  
  
  ********************************
  Highest Flow Instability Indexes
  ********************************
  Link WS02006113WS02006111 (33)
  Link YS02163601YS02164001 (19)
  Link YS02163301YS02001633 (18)
  Link YS02001629YS02163301 (18)
  Link YS02164001YS02001641 (18)
  
  
  *************************
  Routing Time Step Summary
  *************************
  Minimum Time Step           :     0.50 sec
  Average Time Step           :     1.12 sec
  Maximum Time Step           :     5.00 sec
  Percent in Steady State     :    -0.00
  Average Iterations per Step :     3.10
  Percent Not Converging      :     8.98
  
  
  ***************************
  Subcatchment Runoff Summary
  ***************************
  
  ------------------------------------------------------------------------------------------------------------------------------
                            Total      Total      Total      Total     Imperv       Perv      Total       Total     Peak  Runoff
                           Precip      Runon       Evap      Infil     Runoff     Runoff     Runoff      Runoff   Runoff   Coeff
  Subcatchment                 mm         mm         mm         mm         mm         mm         mm    10^6 ltr      LPS
  ------------------------------------------------------------------------------------------------------------------------------
  sub0                      23.84       0.00       0.00       1.03      20.90       0.64      21.54        0.02     4.74   0.904
  sub1                      23.84       0.00       0.00       1.74      19.95       0.88      20.83        0.14    30.53   0.874
  sub2                      23.84       0.00       0.00       6.87      14.10       1.95      16.05        0.15    28.29   0.673
  sub3                      23.84       0.00       0.00       7.14      14.06       1.68      15.74        0.35    61.76   0.660
  sub4                      23.84       0.00       0.00       1.87      19.78       0.75      20.54        0.43    72.83   0.862
  sub5                      23.84       0.00       0.00       1.08      20.85       0.59      21.44        0.24    54.28   0.899
  sub7                      23.84       0.00       0.00       1.37      20.44       0.77      21.21        0.07    17.57   0.890
  sub8                      23.84       0.00       0.00       1.38      20.42       0.76      21.19        0.14    32.08   0.889
  sub9                      23.84       0.00       0.00       1.39      20.42       0.76      21.18        0.10    23.95   0.889
  sub10                     23.84       0.00       0.00       1.24      20.63       0.67      21.30        0.23    53.40   0.894
  sub11                     23.84       0.00       0.00       1.22      20.65       0.69      21.34        0.25    59.71   0.895
  sub12                     23.84       0.00       0.00       1.98      19.55       1.11      20.66        0.18    46.17   0.867
  sub14                     23.84       0.00       0.00       1.39      20.42       0.76      21.18        0.20    47.08   0.888
  sub15                     23.84       0.00       0.00       5.16      15.70       1.99      17.70        0.30    64.58   0.742
  sub16                     23.84       0.00       0.00       5.46      15.05       2.40      17.45        0.18    41.69   0.732
  sub17                     23.84       0.00       0.00       5.32      15.27       2.31      17.58        0.15    34.22   0.738
  sub22                     23.84       0.00       0.00       7.63      12.80       2.62      15.42        0.97   202.91   0.647
  sub23                     23.84       0.00       0.00       6.37      14.15       2.45      16.60        0.79   171.10   0.696
  sub60                     23.84       0.00       0.00       2.46      17.68       0.40      18.08        5.48   635.50   0.759
  sub61                     23.84       0.00       0.00       3.48      17.44       0.57      18.00        5.55   687.97   0.755
  sub62                     23.84       0.00       0.00       1.52      19.11       0.39      19.50        5.99   726.55   0.818
  sub63                     23.84       0.00       0.00       6.22      15.11       0.70      15.81        4.78   606.27   0.663
  sub64                     23.84       0.00       0.00       3.15      17.01       0.42      17.43        5.30   611.50   0.731
  sub65                     23.84       0.00       0.00       2.70      17.34       0.40      17.73        5.45   625.37   0.744
  sub66                     23.84       0.00       0.00       6.42      14.44       0.49      14.93        4.58   541.58   0.626
  sub67                     23.84       0.00       0.00       1.46      19.71       0.45      20.16        6.22   787.40   0.846
  sub68                     23.84       0.00       0.00       2.78      18.22       0.56      18.78        5.78   724.10   0.788
  sub69                     23.84       0.00       0.00       2.86      18.50       0.72      19.22        4.49   586.55   0.806
  sub70                     23.84      19.62       0.00       9.95      26.14       3.78      29.92        6.85   801.71   0.689
  sub71                     23.84       0.00       0.00       1.54      18.81       0.36      19.18        4.53   536.91   0.805
  sub72                     23.84       0.00       0.00       1.45      16.32       0.22      16.55        3.37   330.66   0.694
  sub73                     23.84      29.13       0.00       9.95      31.58       5.28      36.86        8.66   884.85   0.696
  sub74                     23.84       0.00       0.00      17.30       5.48       0.57       6.05        2.42   323.16   0.254
  
  
  ******************
  Node Depth Summary
  ******************
  
  ---------------------------------------------------------------------------------
                                 Average  Maximum  Maximum  Time of Max    Reported
                                   Depth    Depth      HGL   Occurrence   Max Depth
  Node                 Type       Meters   Meters   Meters  days hr:min      Meters
  ---------------------------------------------------------------------------------
  WS02001211           JUNCTION     0.49     0.66     5.49     0  05:42        0.66
  WS02001212           JUNCTION     0.26     0.39     5.46     0  01:52        0.39
  WS02001213           JUNCTION     0.50     0.69     5.45     0  01:52        0.69
  WS02003069           JUNCTION     0.35     0.58     5.17     0  01:53        0.58
  WS02003072           JUNCTION     0.42     0.64     5.01     0  01:54        0.64
  WS02003073           JUNCTION     0.24     0.39     4.46     0  01:55        0.39
  WS02003060           JUNCTION     0.32     0.51     5.45     0  01:53        0.51
  WS02003066           JUNCTION     0.23     0.37     5.92     0  01:39        0.37
  WS02003059           JUNCTION     0.57     0.76     5.45     0  01:52        0.76
  WS02003067           JUNCTION     0.55     0.80     6.12     0  01:37        0.80
  WS02004401           JUNCTION     0.69     1.28     7.28     0  01:33        1.16
  WS02004402           JUNCTION     0.71     1.33     7.29     0  01:33        1.16
  WS02004403           JUNCTION     0.73     1.36     7.29     0  01:33        1.15
  WS02004404           JUNCTION     0.80     1.41     7.26     0  01:33        1.20
  WS02004406           JUNCTION     0.80     1.29     7.12     0  01:33        1.14
  WS02004409           JUNCTION     0.48     0.89     6.66     0  01:38        0.89
  WS02004410           JUNCTION     0.50     0.89     6.61     0  01:38        0.89
  WS02004411           JUNCTION     0.51     0.88     6.56     0  01:38        0.88
  WS02004412           JUNCTION     0.53     0.86     6.50     0  01:38        0.86
  WS02004413           JUNCTION     0.68     0.99     6.46     0  01:38        0.99
  WS02004405           JUNCTION     0.79     1.36     7.21     0  01:33        1.18
  WS02006109           JUNCTION     0.77     1.36     7.98     0  01:36        1.34
  WS02006110           JUNCTION     0.75     1.20     7.78     0  01:36        1.19
  WS02006111           JUNCTION     0.25     0.74     7.45     0  01:35        0.74
  WS02006112           JUNCTION     0.86     1.47     7.36     0  01:35        1.46
  WS02006113           JUNCTION     0.34     0.71     7.60     0  01:36        0.71
  WS02006115           JUNCTION     0.59     1.31     7.45     0  01:33        1.13
  WS02006116           JUNCTION     0.66     1.32     7.36     0  01:33        1.18
  WS02006230           JUNCTION     0.75     2.10     8.85     0  01:30        1.49
  WS02006231           JUNCTION     0.50     1.53     8.65     0  01:30        1.11
  WS02006232           JUNCTION     0.61     1.43     8.47     0  01:30        1.19
  WS02006234           JUNCTION     0.51     1.37     8.53     0  01:30        1.07
  WS02006235           JUNCTION     0.53     1.36     8.53     0  01:31        1.07
  WS02006238           JUNCTION     0.55     1.40     8.55     0  01:30        1.09
  WS02006240           JUNCTION     0.44     1.67     8.96     0  01:31        0.93
  WS02006242           JUNCTION     0.49     1.55     8.82     0  01:30        1.37
  WS02006243           JUNCTION     0.37     1.48     8.90     0  01:31        1.48
  WS02006245           JUNCTION     0.34     1.25     8.74     0  01:31        0.76
  WS02006247           JUNCTION     0.35     1.47     8.97     0  01:31        0.74
  WS02006248           JUNCTION     0.30     0.84     8.43     0  01:31        0.65
  WS02006249           JUNCTION     0.33     0.68     8.28     0  01:31        0.64
  WS02006239           JUNCTION     0.50     1.49     8.69     0  01:31        1.02
  WS02006251           JUNCTION     0.30     0.64     8.31     0  01:32        0.64
  WS02006252           JUNCTION     0.21     0.58     8.83     0  04:20        0.58
  WS02006253           JUNCTION     0.34     0.67     8.32     0  01:32        0.66
  WS02006256           JUNCTION     0.88     1.21     8.15     0  02:50        1.21
  WS02004138           JUNCTION     0.06     0.17     7.41     0  05:40        0.17
  WS02004407           JUNCTION     0.22     0.38     6.69     0  01:36        0.38
  WS02006228           JUNCTION     0.79     1.50     8.15     0  01:35        1.49
  WS02006229           JUNCTION     0.78     1.55     8.24     0  01:35        1.54
  WS02006280           JUNCTION     0.11     0.29     8.56     0  01:35        0.29
  WS02006284           JUNCTION     0.42     0.68     9.08     0  01:36        0.68
  WS02006287           JUNCTION     0.16     0.43     9.38     0  01:35        0.43
  WSF200               JUNCTION     0.21     0.38     5.61     0  01:45        0.38
  HS02004901           JUNCTION     0.17     0.40    10.23     0  01:33        0.40
  HS02004881           JUNCTION     0.02     0.06     9.09     0  01:36        0.06
  HS02004876           JUNCTION     0.07     0.18     9.21     0  01:36        0.18
  HS02004870           JUNCTION     0.03     0.11     9.39     0  01:36        0.11
  HS02004862           JUNCTION     0.04     0.12     9.50     0  01:37        0.12
  HS02004856           JUNCTION     0.09     0.16     9.59     0  01:37        0.16
  HS02004852           JUNCTION     0.02     0.09     9.60     0  01:37        0.09
  HS02004848           JUNCTION     0.02     0.08     9.68     0  01:37        0.08
  HS02004842           JUNCTION     0.34     0.41     9.68     0  01:37        0.41
  HS02004837           JUNCTION     0.04     0.10     9.68     0  01:37        0.10
  HS02004830           JUNCTION     0.06     0.13     9.60     0  01:36        0.13
  HS02004824           JUNCTION     0.04     0.17     9.57     0  01:35        0.17
  HS02004817           JUNCTION     0.49     0.74     9.59     0  01:35        0.74
  HS02004807           JUNCTION     0.18     0.41     9.58     0  01:36        0.40
  HS02004802           JUNCTION     0.21     0.44     9.56     0  01:36        0.44
  HS02004799           JUNCTION     0.19     0.51     9.72     0  01:34        0.51
  HS02004792           JUNCTION     0.07     0.24     9.76     0  01:33        0.24
  HS02004788           JUNCTION     0.05     0.17    10.07     0  01:34        0.17
  HS02004785           JUNCTION     0.09     0.27    10.17     0  01:33        0.27
  HS02004777           JUNCTION     0.20     0.41    10.21     0  01:33        0.41
  HS02004770           JUNCTION     0.17     0.39    10.22     0  01:33        0.39
  HS02004480           JUNCTION     0.14     0.42     9.66     0  01:34        0.42
  HS02004479           JUNCTION     0.18     0.46     9.66     0  01:34        0.46
  HS02004478           JUNCTION     0.11     0.32     9.54     0  01:35        0.32
  YS02001745           JUNCTION     0.82     1.04     8.56     0  03:01        1.04
  YS02001748           JUNCTION     1.21     2.17     9.25     0  01:32        1.46
  YS02001751           JUNCTION     1.39     2.20     9.08     0  01:32        1.64
  YS02001754           JUNCTION     1.64     2.12     8.72     0  01:32        1.89
  YS02001762           JUNCTION     1.84     2.07     8.47     0  02:39        2.07
  YS02001765           JUNCTION     1.79     2.03     8.48     0  02:38        2.02
  YS02001767           JUNCTION     1.75     1.98     8.46     0  02:39        1.97
  YS02001770           JUNCTION     1.74     1.95     8.44     0  01:31        1.95
  YS02001774           JUNCTION     1.80     2.04     8.46     0  01:31        2.00
  YS02001779           JUNCTION     1.54     1.68     8.37     0  01:31        1.68
  YS02001882           JUNCTION     0.90     1.73     8.45     0  01:36        1.63
  YS02001884           JUNCTION     1.00     1.81     8.42     0  01:36        1.74
  YS02001759           JUNCTION     1.87     2.12     8.48     0  02:36        2.11
  YS02001887           JUNCTION     1.08     1.85     8.39     0  01:36        1.82
  YS02001890           JUNCTION     1.10     1.81     8.32     0  01:36        1.81
  YS02001898           JUNCTION     0.86     1.60     8.34     0  01:36        1.56
  YS02001901           JUNCTION     0.98     1.70     8.31     0  01:36        1.67
  YS02001904           JUNCTION     0.95     1.65     8.28     0  01:36        1.63
  YS02001907           JUNCTION     1.27     1.96     8.25     0  01:36        1.96
  YS02001910           JUNCTION     1.08     2.00     8.51     0  01:38        1.79
  YS02001915           JUNCTION     0.89     1.94     8.66     0  01:38        1.62
  YS02001918           JUNCTION     0.61     1.81     8.88     0  01:38        1.29
  YS02001619           JUNCTION     1.34     1.61     8.54     0  01:31        1.50
  YS02001629           JUNCTION     1.68     1.85     8.40     0  01:31        1.84
  YS02001641           JUNCTION     1.77     1.95     8.39     0  01:32        1.93
  YS02001644           JUNCTION     1.77     1.92     8.35     0  01:32        1.92
  YS02001652           JUNCTION     1.65     2.12     8.72     0  01:33        1.88
  YS02001655           JUNCTION     1.41     2.16     9.01     0  01:33        1.67
  YS02001920           JUNCTION     0.70     2.14     9.15     0  01:38        1.36
  YS02001923           JUNCTION     0.51     2.03     9.29     0  01:38        1.13
  YS02001926           JUNCTION     0.48     1.90     9.35     0  01:37        1.46
  YS02001929           JUNCTION     0.32     1.78     9.47     0  01:38        0.73
  YS02001658           JUNCTION     1.15     2.30     9.44     0  01:32        1.42
  YS02001661           JUNCTION     0.92     2.05     9.45     0  01:33        1.21
  YS02001664           JUNCTION     0.43     0.71     8.64     0  01:33        0.69
  YS02001622           JUNCTION     1.35     1.62     8.52     0  01:31        1.51
  YS02001633           JUNCTION     1.77     1.98     8.43     0  01:32        1.94
  YS02001649           JUNCTION     1.84     2.05     8.44     0  01:33        2.05
  YS02001757           JUNCTION     1.96     2.21     8.47     0  02:27        2.21
  YS02001895           JUNCTION     0.86     1.59     8.34     0  01:36        1.56
  YS02001625           JUNCTION     1.63     1.78     8.38     0  01:31        1.78
  YS02163301           JUNCTION     1.71     1.91     8.42     0  01:32        1.88
  YS02163601           JUNCTION     1.82     2.03     8.42     0  01:32        1.99
  YS02164001           JUNCTION     1.75     1.96     8.41     0  01:32        1.92
  YS02001647           JUNCTION     1.62     1.81     8.42     0  01:41        1.79
  YSB1154              JUNCTION     0.32     0.61     9.67     0  01:34        0.61
  YSB6556              JUNCTION     0.21     0.50     9.67     0  01:34        0.50
  YSB1174              JUNCTION     0.27     0.56     9.67     0  01:34        0.56
  YSB1171              JUNCTION     0.47     0.76     9.67     0  01:34        0.76
  YS02006553           JUNCTION     1.27     2.13     8.42     0  01:36        1.97
  YS02006561           JUNCTION     0.57     1.86     8.52     0  01:36        1.09
  YS02006556           JUNCTION     1.24     2.29     8.60     0  01:36        1.93
  YS02006558           JUNCTION     1.28     2.38     8.65     0  01:36        1.98
  YS02001783           JUNCTION     0.92     2.21     8.35     0  01:36        1.48
  YS02001784           JUNCTION     0.92     2.11     8.18     0  01:36        1.42
  YS02001786           JUNCTION     0.86     2.23     8.26     0  01:36        1.27
  YS02001788           JUNCTION     0.81     2.28     8.26     0  01:36        1.13
  YS02001790           JUNCTION     1.03     1.96     7.60     0  01:36        1.29
  YS02001791           JUNCTION     1.08     2.36     7.83     0  01:35        1.28
  YS02001793           JUNCTION     1.60     2.23     7.06     0  01:35        1.80
  WS02004139           JUNCTION     0.43     0.60     5.51     0  05:42        0.60
  WSC                  OUTFALL      0.24     0.39     1.06     0  01:55        0.39
  3                    OUTFALL      0.05     0.21     6.21     0  02:50        0.21
  4                    OUTFALL      0.02     0.17     7.17     0  01:31        0.14
  5                    OUTFALL      0.00     0.00     5.00     0  00:00        0.00
  JK-storage           STORAGE      5.32     5.80     6.60     0  01:36        5.80
  CC-storage           STORAGE      1.19     1.48     8.48     0  02:56        1.48
  XR-storage           STORAGE      7.65     7.72     5.72     0  00:39        7.72
  
  
  *******************
  Node Inflow Summary
  *******************
  
  -------------------------------------------------------------------------------------------------
                                  Maximum  Maximum                  Lateral       Total        Flow
                                  Lateral    Total  Time of Max      Inflow      Inflow     Balance
                                   Inflow   Inflow   Occurrence      Volume      Volume       Error
  Node                 Type           LPS      LPS  days hr:min    10^6 ltr    10^6 ltr     Percent
  -------------------------------------------------------------------------------------------------
  WS02001211           JUNCTION      7.35   269.07     0  05:40       0.207        2.06       1.568
  WS02001212           JUNCTION      0.00   253.60     0  05:41           0        2.05       0.737
  WS02001213           JUNCTION      0.00   251.58     0  05:42           0        2.04       0.968
  WS02003069           JUNCTION      0.32   936.94     0  01:53     0.00902        9.79       0.217
  WS02003072           JUNCTION      0.00   936.55     0  01:54           0        9.77       0.284
  WS02003073           JUNCTION      1.82   938.15     0  01:54      0.0514        9.79       0.306
  WS02003060           JUNCTION     16.53   936.71     0  01:52       0.466        9.85       0.207
  WS02003066           JUNCTION      0.00   860.55     0  01:39           0        7.41       0.042
  WS02003059           JUNCTION      0.00   243.51     0  05:43           0        2.05       1.689
  WS02003067           JUNCTION      0.00   860.18     0  01:39           0        7.41       0.095
  WS02004401           JUNCTION      0.00   870.47     0  01:36           0        7.58       0.200
  WS02004402           JUNCTION      0.00   870.70     0  01:36           0        7.57       0.196
  WS02004403           JUNCTION      0.00   870.91     0  01:36           0        7.55       0.184
  WS02004404           JUNCTION      0.16   871.47     0  01:36     0.00457        7.54       0.145
  WS02004406           JUNCTION      0.00   871.41     0  01:36           0        7.52       0.357
  WS02004409           JUNCTION      0.00   870.32     0  01:36           0        7.49       0.132
  WS02004410           JUNCTION      0.00   862.28     0  01:37           0        7.48       0.159
  WS02004411           JUNCTION      0.00   860.11     0  01:38           0        7.46       0.172
  WS02004412           JUNCTION      0.00   859.85     0  01:38           0        7.45       0.197
  WS02004413           JUNCTION      0.00   860.05     0  01:38           0        7.44       0.309
  WS02004405           JUNCTION      0.04   872.83     0  01:36     0.00107        7.53       0.219
  WS02006109           JUNCTION      1.23   849.58     0  01:33      0.0347        7.51       0.142
  WS02006110           JUNCTION      0.00   849.52     0  01:33           0         7.5       0.170
  WS02006111           JUNCTION      0.00   862.13     0  01:32           0        7.48       0.017
  WS02006112           JUNCTION     34.22   871.12     0  01:36       0.151        7.63       0.288
  WS02006113           JUNCTION      0.00   849.77     0  01:33           0        7.48       0.066
  WS02006115           JUNCTION      0.00   871.02     0  01:36           0        7.61       0.169
  WS02006116           JUNCTION      0.00   870.70     0  01:36           0        7.59       0.145
  WS02006230           JUNCTION     10.28   391.98     0  04:22        0.29        3.45       0.211
  WS02006231           JUNCTION      0.00   383.32     0  04:22           0        3.14       0.011
  WS02006232           JUNCTION      0.00   383.59     0  04:22           0        3.13       0.245
  WS02006234           JUNCTION      0.00   385.24     0  04:21           0        3.11      -0.021
  WS02006235           JUNCTION      0.00   385.87     0  04:21           0        3.34       0.160
  WS02006238           JUNCTION      0.00   302.62     0  04:21           0        2.33       0.061
  WS02006240           JUNCTION      0.00   308.02     0  04:21           0        2.26       0.061
  WS02006242           JUNCTION      0.00   311.98     0  04:20           0        2.23       0.114
  WS02006243           JUNCTION      0.00   320.88     0  04:20           0        2.21      -0.093
  WS02006245           JUNCTION      0.00   326.20     0  04:20           0        2.21       0.270
  WS02006247           JUNCTION      0.00   331.17     0  04:20           0        2.21       0.024
  WS02006248           JUNCTION      0.00   335.88     0  04:20           0        2.21      -0.133
  WS02006249           JUNCTION      0.00   393.76     0  04:20           0        2.49       0.202
  WS02006239           JUNCTION      0.00   304.60     0  04:21           0        2.29      -0.126
  WS02006251           JUNCTION      0.08   399.99     0  04:20     0.00217        2.51      -0.028
  WS02006252           JUNCTION      0.00   399.91     0  04:20           0        1.66       0.009
  WS02006253           JUNCTION      4.74   178.63     0  01:36      0.0174       0.848      -0.015
  WS02006256           JUNCTION      0.00   599.94     0  02:50           0        2.36       0.095
  WS02004138           JUNCTION      0.00   284.53     0  05:40           0        1.85       0.144
  WS02004407           JUNCTION      0.00   871.55     0  01:36           0        7.49       0.057
  WS02006228           JUNCTION      0.00   848.48     0  01:33           0        7.48       0.104
  WS02006229           JUNCTION      0.00   853.93     0  01:34           0        7.53       0.147
  WS02006280           JUNCTION      0.00   821.13     0  01:36           0        4.12       0.002
  WS02006284           JUNCTION      0.10   821.09     0  01:36      0.0027        4.12       0.023
  WS02006287           JUNCTION      0.00   820.94     0  01:36           0        4.12       0.018
  WSF200               JUNCTION      0.00   860.62     0  01:39           0         7.4       0.032
  HS02004901           JUNCTION     41.69    41.69     0  01:31       0.183       0.183       0.972
  HS02004881           JUNCTION     17.57   174.51     0  01:36      0.0714       0.818       0.045
  HS02004876           JUNCTION     30.53   157.86     0  01:36       0.139       0.747       0.075
  HS02004870           JUNCTION     32.08   127.65     0  01:36       0.135       0.609       0.018
  HS02004862           JUNCTION     28.49    96.84     0  01:37       0.155       0.474       0.037
  HS02004856           JUNCTION     23.95    68.40     0  01:36       0.102        0.32       0.452
  HS02004852           JUNCTION      0.00    45.40     0  01:37           0       0.218       0.028
  HS02004848           JUNCTION     61.76    61.76     0  01:40       0.354       0.354       0.014
  HS02004842           JUNCTION      0.00    18.52     0  01:52           0       0.149       9.568
  HS02004837           JUNCTION     59.75    74.34     0  01:37       0.414        0.55       0.146
  HS02004830           JUNCTION      0.15    74.45     0  01:37     0.00423        0.54       0.229
  HS02004824           JUNCTION     72.88   147.21     0  01:41        0.43       0.969       0.056
  HS02004817           JUNCTION      0.60   150.02     0  01:40      0.0169       0.985       1.722
  HS02004807           JUNCTION     59.71   204.93     0  01:37       0.248        1.22       0.360
  HS02004802           JUNCTION      0.00   204.79     0  01:39           0        1.22       0.328
  HS02004799           JUNCTION     47.08   525.52     0  01:33       0.202         2.5       0.119
  HS02004792           JUNCTION    203.19   478.63     0  01:33       0.982         2.3       0.017
  HS02004788           JUNCTION     66.25   277.11     0  01:34       0.351        1.32       0.029
  HS02004785           JUNCTION      0.15   210.95     0  01:33     0.00423       0.971       0.053
  HS02004777           JUNCTION      0.03   211.17     0  01:32    0.000846       0.971       0.540
  HS02004770           JUNCTION    171.10   212.05     0  01:32       0.791       0.973       0.316
  HS02004480           JUNCTION      0.00   623.62     0  01:34           0        2.92       0.035
  HS02004479           JUNCTION      0.00    98.35     0  01:34           0       0.432       0.172
  HS02004478           JUNCTION      0.00   820.92     0  01:35           0        4.12       0.008
  YS02001745           JUNCTION    635.50   635.50     0  03:01        5.48        5.48       0.217
  YS02001748           JUNCTION      0.04   635.77     0  03:01     0.00127        5.47       0.407
  YS02001751           JUNCTION      0.01   635.97     0  03:01     0.00031        5.45       0.445
  YS02001754           JUNCTION      0.26   636.41     0  03:01     0.00733        5.44       0.444
  YS02001762           JUNCTION      0.00   391.50     0  01:43           0        3.14       0.678
  YS02001765           JUNCTION      0.00   391.45     0  01:43           0        3.13       0.772
  YS02001767           JUNCTION      0.54   391.64     0  01:43      0.0151        3.16       1.142
  YS02001770           JUNCTION    726.70  1084.71     0  03:01           6        7.97       0.392
  YS02001774           JUNCTION      0.00   851.86     0  02:28           0        6.48       0.384
  YS02001779           JUNCTION      0.01   851.53     0  02:28    0.000141        6.45       0.232
  YS02001882           JUNCTION      0.00    37.86     0  01:34           0      0.0255      10.362
  YS02001884           JUNCTION      0.00    55.61     0  01:32           0      0.0617      11.542
  YS02001759           JUNCTION    688.01   889.83     0  01:47        5.55        6.69       0.341
  YS02001887           JUNCTION    787.85   787.85     0  03:01        6.23        6.26       0.139
  YS02001890           JUNCTION      0.00   787.91     0  03:01           0        6.22       0.156
  YS02001898           JUNCTION      0.00   560.94     0  01:37           0        5.24       0.046
  YS02001901           JUNCTION      0.00   561.99     0  01:37           0        5.24       0.144
  YS02001904           JUNCTION      0.00   562.48     0  01:37           0        5.23       0.126
  YS02001907           JUNCTION      0.00  1384.63     0  03:01           0        13.2       0.184
  YS02001910           JUNCTION      0.00   868.05     0  03:01           0        7.98       0.148
  YS02001915           JUNCTION    536.93   867.96     0  03:01        4.53        8.03       0.083
  YS02001918           JUNCTION      0.00   390.20     0  01:39           0        3.53       0.051
  YS02001619           JUNCTION    541.58   541.58     0  03:01        4.58        4.58       0.266
  YS02001629           JUNCTION      0.00   373.21     0  01:31           0        1.87       1.519
  YS02001641           JUNCTION      0.00   454.37     0  01:32           0        5.95       0.353
  YS02001644           JUNCTION    611.54  1882.06     0  03:01         5.3        19.6       0.134
  YS02001652           JUNCTION      0.00   607.65     0  03:01           0        4.72       0.481
  YS02001655           JUNCTION      0.15   607.57     0  03:01     0.00434        4.75       0.541
  YS02001920           JUNCTION      2.87   390.17     0  01:38      0.0809        3.51       0.089
  YS02001923           JUNCTION      0.04   367.69     0  01:37     0.00106        3.41       0.036
  YS02001926           JUNCTION      0.05   445.95     0  01:37     0.00147        3.39       0.094
  YS02001929           JUNCTION    330.66   330.66     0  03:01        3.37        3.37       0.018
  YS02001658           JUNCTION      0.00   607.29     0  03:01           0        4.77       0.498
  YS02001661           JUNCTION      0.00   800.86     0  01:47           0        4.88       0.243
  YS02001664           JUNCTION    606.27   606.27     0  03:01        4.78        4.88       0.116
  YS02001622           JUNCTION      0.00   541.63     0  03:01           0        4.57       0.695
  YS02001633           JUNCTION    625.57   625.57     0  03:01        5.46        6.65       0.481
  YS02001649           JUNCTION      0.00  1415.52     0  03:01           0        11.3       0.327
  YS02001757           JUNCTION      0.00  2168.06     0  01:46           0          12       0.758
  YS02001895           JUNCTION      0.00   560.27     0  01:37           0        5.24       0.121
  YS02001625           JUNCTION      0.00   743.88     0  03:01           0        5.19       0.775
  YS02163301           JUNCTION      0.00   310.86     0  01:30           0        1.87       1.293
  YS02163601           JUNCTION      0.11   453.86     0  01:32      0.0031        5.95       0.504
  YS02164001           JUNCTION      0.00   454.19     0  01:32           0        5.94       0.336
  YS02001647           JUNCTION      0.00   846.70     0  02:47           0        9.07       0.311
  YSB1154              JUNCTION     54.28    54.28     0  01:34       0.243       0.243       0.595
  YSB6556              JUNCTION      0.00    54.37     0  01:35           0       0.244       0.519
  YSB1174              JUNCTION     46.17    46.17     0  01:30       0.181       0.181       0.711
  YSB1171              JUNCTION      0.00    98.47     0  01:34           0       0.431       1.496
  YS02006553           JUNCTION      0.00   700.25     0  03:51           0        7.64       0.206
  YS02006561           JUNCTION      0.00  1063.08     0  01:36           0        13.4       0.007
  YS02006556           JUNCTION      0.00   700.40     0  03:51           0        7.64       0.149
  YS02006558           JUNCTION    724.98  1063.66     0  01:36         5.8        13.4       0.039
  YS02001783           JUNCTION      0.00  1036.47     0  01:36           0        13.4       0.055
  YS02001784           JUNCTION      1.06  1037.30     0  01:36      0.0299        13.4       0.082
  YS02001786           JUNCTION      0.06  1037.10     0  01:36     0.00159        13.4       0.100
  YS02001788           JUNCTION      0.07  1008.22     0  01:35       0.002        13.4       0.101
  YS02001790           JUNCTION      0.15  1005.76     0  01:36     0.00437        13.4       0.126
  YS02001791           JUNCTION      0.00   985.89     0  01:35           0        13.3       0.106
  YS02001793           JUNCTION      0.00   974.18     0  03:01           0        13.3       0.122
  WS02004139           JUNCTION      0.32   283.72     0  05:40     0.00905        1.87       1.667
  WSC                  OUTFALL       0.00   937.98     0  01:55           0        9.76       0.000
  3                    OUTFALL       0.00   530.58     0  02:50           0        1.29       0.000
  4                    OUTFALL       0.00   256.79     0  01:31           0       0.279       0.000
  5                    OUTFALL       0.00     0.00     0  00:00           0           0       0.000 ltr
  JK-storage           STORAGE       0.00  1019.37     0  01:35           0        13.5       0.146
  CC-storage           STORAGE       0.00  2168.54     0  01:46           0        5.95       1.110
  XR-storage           STORAGE    1408.02  1408.02     0  03:01        16.7        17.3      -0.001
  
  
  **********************
  Node Surcharge Summary
  **********************
  
  Surcharging occurs when water rises above the top of the highest conduit.
  ---------------------------------------------------------------------
                                               Max. Height   Min. Depth
                                   Hours       Above Crown    Below Rim
  Node                 Type      Surcharged         Meters       Meters
  ---------------------------------------------------------------------
  WS02004401           JUNCTION        1.09          0.278        1.382
  WS02004402           JUNCTION        1.20          0.332        1.408
  WS02004403           JUNCTION        1.22          0.364        1.666
  WS02004404           JUNCTION        1.61          0.411        2.369
  WS02004406           JUNCTION        1.45          0.291        2.159
  WS02004405           JUNCTION        1.53          0.358        2.442
  WS02006109           JUNCTION        2.07          0.542        1.278
  WS02006110           JUNCTION        1.81          0.288        1.562
  WS02006112           JUNCTION        1.84          0.473        1.207
  WS02006115           JUNCTION        0.44          0.301        1.949
  WS02006116           JUNCTION        0.48          0.261        2.029
  WS02006230           JUNCTION        1.45          1.023        0.547
  WS02006231           JUNCTION        1.49          0.821        0.709
  WS02006232           JUNCTION        1.95          0.728        0.752
  WS02006234           JUNCTION        1.48          0.649        0.591
  WS02006235           JUNCTION        1.58          0.651        0.639
  WS02006238           JUNCTION        1.66          0.683        0.747
  WS02006240           JUNCTION        1.16          0.956        0.434
  WS02006242           JUNCTION        1.31          0.820        0.000
  WS02006243           JUNCTION        0.43          0.770        0.000
  WS02006245           JUNCTION        0.32          0.544        0.306
  WS02006247           JUNCTION        0.22          0.760        0.000
  WS02006248           JUNCTION        0.01          0.122        0.258
  WS02006239           JUNCTION        1.41          0.746        0.544
  WS02006252           JUNCTION        0.19          0.184        0.916
  WS02006228           JUNCTION        2.05          0.666        1.534
  HS02004817           JUNCTION        0.32          0.040        1.700
  YS02001745           JUNCTION        0.72          0.042        1.308
  YS02001748           JUNCTION        6.28          1.090        0.100
  YS02001751           JUNCTION        6.30          1.200        0.000
  YS02001754           JUNCTION        6.31          1.066        0.084
  YS02001762           JUNCTION        6.34          1.074        0.076
  YS02001765           JUNCTION        6.34          1.025        0.075
  YS02001767           JUNCTION        6.33          0.976        0.054
  YS02001770           JUNCTION        6.33          0.920        0.000
  YS02001774           JUNCTION        6.34          1.038        0.012
  YS02001779           JUNCTION        6.31          0.680        0.000
  YS02001882           JUNCTION        2.57          0.730        0.100
  YS02001884           JUNCTION        2.60          0.746        0.124
  YS02001759           JUNCTION        6.35          1.116        0.094
  YS02001887           JUNCTION        2.68          0.797        0.153
  YS02001890           JUNCTION        2.70          0.760        0.000
  YS02001898           JUNCTION        2.53          0.571        0.169
  YS02001901           JUNCTION        2.64          0.704        0.166
  YS02001904           JUNCTION        2.62          0.654        0.196
  YS02001907           JUNCTION        3.04          0.950        0.000
  YS02001910           JUNCTION        2.74          0.999        0.101
  YS02001915           JUNCTION        2.56          0.944        0.056
  YS02001918           JUNCTION        2.34          0.810        0.000
  YS02001619           JUNCTION        6.31          0.610        0.000
  YS02001629           JUNCTION        6.31          0.470        0.000
  YS02001641           JUNCTION        6.34          0.955        0.145
  YS02001644           JUNCTION        6.34          0.920        0.000
  YS02001652           JUNCTION        6.31          1.092        0.038
  YS02001655           JUNCTION        6.30          1.161        0.039
  YS02001920           JUNCTION        2.38          1.140        0.000
  YS02001923           JUNCTION        0.01          0.820        0.000
  YS02001926           JUNCTION        0.01          0.900        0.000
  YS02001929           JUNCTION        0.01          0.780        0.000
  YS02001658           JUNCTION        6.29          1.300        0.000
  YS02001661           JUNCTION        1.13          0.979        0.411
  YS02001622           JUNCTION        6.31          0.620        0.000
  YS02001633           JUNCTION        6.33          0.955        0.105
  YS02001649           JUNCTION        6.34          1.050        0.000
  YS02001757           JUNCTION        6.36          1.210        0.000
  YS02001895           JUNCTION        2.54          0.591        0.159
  YS02001625           JUNCTION        6.32          0.780        0.000
  YS02163301           JUNCTION        6.33          0.906        0.124
  YS02163601           JUNCTION        6.34          1.025        0.055
  YS02164001           JUNCTION        6.33          0.955        0.145
  YS02001647           JUNCTION        6.32          0.810        0.090
  YS02006553           JUNCTION        3.11          1.131        0.059
  YS02006561           JUNCTION        2.44          1.062        0.088
  YS02006556           JUNCTION        2.90          1.248        0.102
  YS02006558           JUNCTION        2.88          1.282        0.118
  YS02001783           JUNCTION        2.94          1.408        0.192
  YS02001784           JUNCTION        2.97          1.314        0.176
  YS02001786           JUNCTION        2.90          1.430        0.000
  YS02001788           JUNCTION        2.89          1.480        0.000
  YS02001790           JUNCTION        6.06          1.157        0.000
  YS02001791           JUNCTION        6.23          1.564        0.356
  YS02001793           JUNCTION        6.24          1.230        1.370
  
  
  *********************
  Node Flooding Summary
  *********************
  
  Flooding refers to all water that overflows a node, whether it ponds or not.
  --------------------------------------------------------------------------
                                                             Total   Maximum
                                 Maximum   Time of Max       Flood    Ponded
                        Hours       Rate    Occurrence      Volume     Depth
  Node                 Flooded       LPS   days hr:min    10^6 ltr    Meters
  --------------------------------------------------------------------------
  WS02006242              0.01    144.56      0  01:30       0.000     0.000
  WS02006243              0.01    114.01      0  01:31       0.000     0.000
  WS02006247              0.01    132.82      0  01:31       0.000     0.000
  YS02001751              0.01     26.47      0  01:32       0.000     0.000
  YS02001770              0.78    233.43      0  03:01       0.284     0.000
  YS02001779              4.59    851.34      0  02:29       6.433     0.000
  YS02001890              1.66    271.45      0  03:01       0.962     0.000
  YS02001907              2.20   1137.21      0  03:01       5.547     0.000
  YS02001918              0.01     83.87      0  01:38       0.000     0.000
  YS02001619              0.01     80.86      0  01:31       0.000     0.000
  YS02001629              0.01    365.80      0  01:31       0.004     0.000
  YS02001644              6.27   1882.00      0  03:01      18.797     0.000
  YS02001920              0.01     17.52      0  01:38       0.000     0.000
  YS02001923              0.01    126.90      0  01:38       0.000     0.000
  YS02001926              0.01    304.34      0  01:37       0.000     0.000
  YS02001929              0.01    187.72      0  01:38       0.000     0.000
  YS02001658              0.01    236.66      0  01:32       0.000     0.000
  YS02001622              0.01     60.92      0  01:31       0.000     0.000
  YS02001649              1.20    568.81      0  03:01       1.324     0.000
  YS02001757              0.23    250.71      0  03:01       0.107     0.000
  YS02001625              2.86    743.85      0  03:01       3.935     0.000
  YS02001786              0.01     67.68      0  01:36       0.000     0.000
  YS02001788              0.01    101.95      0  01:36       0.000     0.000
  YS02001790              0.01    202.86      0  01:36       0.000     0.000
  JK-storage              5.71    974.18      0  03:01      10.962     0.000
  XR-storage              7.18   1398.42      0  03:01      14.543     0.000
  
  
  **********************
  Storage Volume Summary
  **********************
  
  --------------------------------------------------------------------------------------------------
                         Average     Avg  Evap Exfil       Maximum     Max    Time of Max    Maximum
                          Volume    Pcnt  Pcnt  Pcnt        Volume    Pcnt     Occurrence    Outflow
  Storage Unit           1000 m3    Full  Loss  Loss       1000 m3    Full    days hr:min        LPS
  --------------------------------------------------------------------------------------------------
  JK-storage               0.267      92     0     0         0.291     100       0  01:36     599.94
  CC-storage               3.326      21     0     0         4.124      26       0  02:56     399.91
  XR-storage               0.918      99     0     0         0.926     100       0  00:39     284.53
  
  
  ***********************
  Outfall Loading Summary
  ***********************
  
  -----------------------------------------------------------
                         Flow       Avg       Max       Total
                         Freq      Flow      Flow      Volume
  Outfall Node           Pcnt       LPS       LPS    10^6 ltr
  -----------------------------------------------------------
  WSC                  100.00    413.95    937.98       9.763
  3                     56.59    132.90    530.58       1.293
  4                     23.48     60.64    256.79       0.279
  5                      0.00      0.00      0.00       0.000
  -----------------------------------------------------------
  System                45.02    607.49   1259.40      11.335
  
  
  ********************
  Link Flow Summary
  ********************
  
  -----------------------------------------------------------------------------
                                 Maximum  Time of Max   Maximum    Max/    Max/
                                  |Flow|   Occurrence   |Veloc|    Full    Full
  Link                 Type          LPS  days hr:min     m/sec    Flow   Depth
  -----------------------------------------------------------------------------
  WS02003066WSF200     CONDUIT    860.62     0  01:39      3.23    0.15    0.29
  WS02006287WS02006284 CONDUIT    821.00     0  01:36      2.53    0.38    0.43
  WS02006284WS02006280 CONDUIT    821.13     0  01:36      2.76    0.34    0.40
  WS02006280WS02006229 CONDUIT    821.22     0  01:36      4.39    0.18    0.33
  WS02006229WS02006228 CONDUIT    848.48     0  01:33      1.69    2.81    1.00
  WS02006256WS02006235 CONDUIT    149.96     0  00:15      2.14    1.59    1.00
  WS02006253WS02006251 CONDUIT    194.82     0  01:33      0.69    0.58    0.92
  WS02006252WS02006251 CONDUIT    399.92     0  04:20      3.18    1.47    1.00
  WS02006251WS02006249 CONDUIT    393.76     0  04:20      1.15    1.14    0.91
  WS02006249WS02006248 CONDUIT    335.88     0  04:20      1.16    1.84    0.92
  WS02006248WS02006247 CONDUIT    331.17     0  04:20      1.13    0.72    1.00
  WS02006247WS02006245 CONDUIT    326.20     0  04:20      1.09    2.59    1.00
  WS02006245WS02006243 CONDUIT    320.88     0  04:20      1.17    0.95    1.00
  WS02006243WS02006242 CONDUIT    311.98     0  04:20      0.91    0.67    1.00
  WS02006242WS02006240 CONDUIT    308.02     0  04:21      0.83    1.22    1.00
  WS02006240WS02006239 CONDUIT    304.60     0  04:21      0.94    0.96    1.00
  WS02006239WS02006238 CONDUIT    302.62     0  04:21      0.80    0.97    1.00
  WS02006238WS02006235 CONDUIT    302.24     0  04:21      0.79    0.67    1.00
  WS02006235WS02006234 CONDUIT    385.24     0  04:21      1.01    4.06    1.00
  WS02006234WS02006232 CONDUIT    383.59     0  04:22      1.00    0.78    1.00
  WS02006232WS02006231 CONDUIT    383.32     0  04:22      1.04    0.80    1.00
  WS02006231WS02006230 CONDUIT    381.70     0  04:22      1.30    5.79    1.00
  WS02006230WS02006229 CONDUIT    391.36     0  04:23      1.02    8.71    1.00
  WS02006228WS02006109 CONDUIT    848.35     0  01:33      1.69    3.71    1.00
  WS02006116WS02004401 CONDUIT    870.47     0  01:36      1.11    1.20    1.00
  WS02006115WS02006116 CONDUIT    870.70     0  01:36      1.11    1.12    1.00
  WS02006113WS02006111 CONDUIT    862.13     0  01:32      2.70    1.03    0.90
  WS02006112WS02006115 CONDUIT    871.02     0  01:36      1.11    0.51    1.00
  WS02006111WS02006112 CONDUIT    838.93     0  01:36      1.92    0.40    0.96
  WS02006110WS02006113 CONDUIT    849.77     0  01:33      1.85    0.77    0.94
  WS02006109WS02006110 CONDUIT    849.52     0  01:33      1.69    1.63    1.00
  WS02004411WS02004412 CONDUIT    859.85     0  01:38      1.19    1.22    0.87
  WS02004401WS02004402 CONDUIT    870.70     0  01:36      1.11    1.05    1.00
  WS02004413WS02003067 CONDUIT    860.18     0  01:39      1.45    0.37    0.71
  WS02004412WS02004413 CONDUIT    860.05     0  01:38      1.13    0.58    0.93
  WS02004410WS02004411 CONDUIT    860.11     0  01:38      1.17    1.17    0.88
  WS02004409WS02004410 CONDUIT    862.28     0  01:37      1.24    1.12    0.89
  WS02004407WS02004409 CONDUIT    870.32     0  01:36      1.84    0.31    0.64
  WS02004406WS02004407 CONDUIT    871.55     0  01:36      1.51    0.39    0.69
  WS02004405WS02004406 CONDUIT    871.41     0  01:36      1.11    1.72    1.00
  WS02004404WS02004405 CONDUIT    872.79     0  01:36      1.11    8.55    1.00
  WS02004403WS02004404 CONDUIT    871.31     0  01:36      1.11    0.63    1.00
  WS02004402WS02004403 CONDUIT    870.91     0  01:36      1.11    1.25    1.00
  WS02004139WS02001211 CONDUIT    261.72     0  05:40      0.53    0.33    0.48
  WS02004138WS02004139 CONDUIT    283.40     0  05:40      2.39    0.06    0.35
  WS02003067WS02003066 CONDUIT    860.55     0  01:39      1.58    0.28    0.48
  WS02001213WS02003059 CONDUIT    243.51     0  05:43      0.54    0.40    0.72
  WS02001212WS02001213 CONDUIT    251.58     0  05:42      1.12    0.39    0.38
  WS02001211WS02001212 CONDUIT    253.60     0  05:41      0.62    0.19    0.52
  WS02003072WS02003073 CONDUIT    936.32     0  01:54      1.72    2.02    0.48
  WS02003069WS02003072 CONDUIT    936.55     0  01:54      1.62    0.45    0.51
  WS02003060WS02003069 CONDUIT    936.62     0  01:53      1.87    0.37    0.46
  WS02003059WS02003060 CONDUIT    240.85     0  05:45      0.72    0.16    0.64
  HS02004901HS02004770 CONDUIT     40.98     0  01:33      0.10    0.15    0.57
  HS02004876HS02004881 CONDUIT    157.88     0  01:36      1.33    1.68    0.17
  HS02004870HS02004876 CONDUIT    127.62     0  01:36      0.90    0.08    0.20
  HS02004842HS02004848 CONDUIT     18.52     0  01:52      0.08    0.01    0.35
  HS02004837HS02004842 CONDUIT     18.98     0  01:52      0.42    0.01    0.36
  HS02004830HS02004837 CONDUIT     74.30     0  01:37      0.68    0.07    0.16
  HS02004824HS02004830 CONDUIT     75.01     0  01:38      0.62    0.10    0.21
  HS02004817HS02004824 CONDUIT    149.42     0  01:40      0.35    0.07    0.62
  HS02004770HS02004777 CONDUIT    211.14     0  01:32      0.52    0.39    0.58
  HS02004799HS02004480 CONDUIT    525.38     0  01:34      1.14    0.66    0.66
  HS02004792HS02004799 CONDUIT    478.54     0  01:33      1.27    0.29    0.54
  HS02004788HS02004792 CONDUIT    277.00     0  01:34      1.34    0.18    0.30
  HS02004785HS02004788 CONDUIT    210.88     0  01:34      0.96    1.59    0.31
  HS02004777HS02004785 CONDUIT    210.80     0  01:33      0.62    0.26    0.49
  HS02004480HS02004478 CONDUIT    623.56     0  01:34      1.66    2.63    0.54
  HS02004479HS02004480 CONDUIT     98.64     0  01:35      0.34    0.10    0.63
  HS02004862HS02004870 CONDUIT     96.84     0  01:37      0.86    0.10    0.16
  HS02004848HS02004852 CONDUIT     45.40     0  01:37      0.56    0.05    0.12
  HS02004856HS02004862 CONDUIT     68.36     0  01:37      0.64    0.07    0.15
  HS02004852HS02004856 CONDUIT     45.49     0  01:38      0.37    0.05    0.18
  HS02004802HS02004478 CONDUIT    205.93     0  01:40      0.56    0.18    0.54
  HS02004478WS02006287 CONDUIT    820.94     0  01:36      2.26    0.23    0.40
  HS02004817HS02004807 CONDUIT    150.27     0  01:39      0.27    0.09    0.79
  HS02004807HS02004802 CONDUIT    204.79     0  01:39      0.50    0.39    0.59
  YS02001759YS02001757 CONDUIT    889.68     0  01:46      1.13    0.63    1.00
  YS02001762YS02001759 CONDUIT    391.13     0  01:42      0.50    0.45    1.00
  YS02001765YS02001762 CONDUIT    391.50     0  01:43      0.50    0.37    1.00
  YS02001770YS02001767 CONDUIT    391.10     0  01:43      0.50    1.55    1.00
  YS02001774YS02001770 CONDUIT    851.86     0  02:28      1.08    0.54    1.00
  YS02001779YS02001774 CONDUIT    851.52     0  02:28      1.08    0.43    1.00
  YS02001649YS02001757 CONDUIT    910.83     0  01:45      1.16    0.55    1.00
  YS02001767YS02001765 CONDUIT    391.45     0  01:43      0.50    0.49    1.00
  YS02006561YS02001783 CONDUIT   1036.47     0  01:36      2.26    0.54    1.00
  YS02001783YS02001784 CONDUIT   1036.24     0  01:36      2.06    1.43    1.00
  YS02001784YS02001785 CONDUIT   1037.04     0  01:36      2.08    2.41    1.00
  YS02001788YS02001790 CONDUIT   1005.61     0  01:36      2.49    0.74    1.00
  YS02001790YS02001791 CONDUIT    985.89     0  01:35      3.06    1.07    1.00
  YS02001791YS02001793 CONDUIT    974.18     0  03:01      5.94    0.42    1.00
  YS02001910YS02001907 CONDUIT    868.24     0  03:01      1.11    0.49    1.00
  YS02001786YS02001788 CONDUIT   1008.15     0  01:35      2.33    1.94    1.00
  YS02001915YS02001910 CONDUIT    868.05     0  03:01      1.11    0.43    1.00
  YS02001918YS02001915 CONDUIT    390.84     0  01:39      0.54    0.22    1.00
  YS02001923YS02001920 CONDUIT    387.30     0  01:38      0.88    0.17    1.00
  YS02001926YS02001923 CONDUIT    368.52     0  01:37      0.95    0.53    1.00
  YS02001929YS02001926 CONDUIT    330.20     0  03:01      1.03    0.16    1.00
  YS02001920YS02001918 CONDUIT    390.20     0  01:39      0.84    0.38    1.00
  YS02001629YS02163301 CONDUIT    299.93     0  01:30      0.38    0.37    1.00
  YS02001619YS02001622 CONDUIT    541.63     0  03:01      0.90    0.80    1.00
  YS02001622YS02001625 CONDUIT    541.81     0  03:01      0.69    0.29    1.00
  YS02001625YS02001629 CONDUIT    309.94     0  01:30      0.45    0.15    1.00
  YS02163301YS02001633 CONDUIT    310.86     0  01:30      0.40    0.29    1.00
  YS02163601YS02164001 CONDUIT    454.19     0  01:32      0.58    0.40    1.00
  YS02164001YS02001641 CONDUIT    454.37     0  01:32      0.58    0.62    1.00
  YS02001641YS02001644 CONDUIT    454.45     0  01:32      0.58    1.47    1.00
  YS02001647YS02001649 CONDUIT    846.70     0  02:47      1.08    0.45    1.00
  YS02006553YS02006556 CONDUIT    700.40     0  03:51      0.89    0.60    1.00
  YS02006556YS02006558 CONDUIT    700.70     0  03:51      0.89    0.55    1.00
  YSB6556YSB1171       CONDUIT     54.78     0  01:35      0.16    0.06    0.86
  YS02001907YS02006553 CONDUIT    700.25     0  03:51      0.78    0.82    1.00
  YS02006558YS02006561 CONDUIT   1063.08     0  01:36      3.76    2.35    1.00
  YS02001633YS02163601 CONDUIT    453.75     0  01:32      0.58    0.48    1.00
  YS02001644YS02001647 CONDUIT    846.70     0  02:47      1.08    0.50    1.00
  YS02001745YS02001748 CONDUIT    635.73     0  03:01      1.90    0.24    1.00
  YS02001748YS02001751 CONDUIT    635.96     0  03:01      1.44    0.32    1.00
  YS02001751YS02001754 CONDUIT    636.15     0  03:01      1.17    0.31    1.00
  YS02001754YS02001757 CONDUIT    636.52     0  03:01      0.81    0.26    1.00
  YS02001882YS02001884 CONDUIT     37.86     0  01:34      0.18    0.04    1.00
  YS02001884YS02001887 CONDUIT     55.61     0  01:32      0.14    0.07    1.00
  YS02001890YS02001895 CONDUIT    560.27     0  01:37      0.71    0.26    1.00
  YS02001895YS02001898 CONDUIT    560.94     0  01:37      0.71    0.97    1.00
  YS02001898YS02001901 CONDUIT    561.99     0  01:37      0.72    0.36    1.00
  YS02001901YS02001904 CONDUIT    562.48     0  01:37      0.72    0.87    1.00
  YS02001904YS02001907 CONDUIT    562.56     0  01:37      0.72    0.20    1.00
  YS02001887YS02001890 CONDUIT    787.91     0  03:01      1.00    1.35    1.00
  YS02001652YS02001649 CONDUIT    607.69     0  03:01      0.77    0.30    1.00
  YS02001655YS02001652 CONDUIT    607.65     0  03:01      1.26    0.30    1.00
  YS02001658YS02001655 CONDUIT    607.42     0  03:01      1.67    0.26    1.00
  YS02001661YS02001658 CONDUIT    607.29     0  03:01      2.02    0.24    1.00
  YS02001664YS02001661 CONDUIT    800.86     0  01:47      1.90    0.25    0.86
  YSB1154YSB6556       CONDUIT     54.37     0  01:35      0.17    0.10    0.79
  YSB1174YSB1171       CONDUIT     45.33     0  01:31      0.13    0.07    0.90
  YSB1171HS02004479    CONDUIT     98.35     0  01:34      0.54    0.07    0.73
  HS02004881HS02006253 CONDUIT    174.51     0  01:36      2.52    0.03    0.28
  YS02001793JiankangQianchi CONDUIT   1019.37     0  01:35     10.47    0.08    1.00
  YS02001757CaochengTiaoxuchi CONDUIT   2168.54     0  01:46      3.83    0.95    1.00
  WSF200WS02003060     CONDUIT    863.01     0  01:39      2.49    0.19    0.37
  1                    CONDUIT    937.98     0  01:55      3.27    0.33    0.39
  2                    CONDUIT    256.79     0  01:31      6.19    0.61    0.58
  3                    CONDUIT    530.58     0  02:50      9.90    0.85    0.71
  4                    CONDUIT      0.00     0  00:00      0.00    0.00    0.00
  CC-Pump-1            PUMP       200.00     0  04:00              1.00
  CC-Pump-2            PUMP       200.00     0  06:40              1.00
  JK-Pump-1            PUMP       299.99     0  05:50              1.00
  JK-Pump-2            PUMP       300.00     0  02:40              1.00
  XR-Pump-1            PUMP        95.00     0  00:00              1.00
  XR-Pump-2            PUMP        94.97     0  07:00              1.00
  XR-Pump-3            PUMP        94.96     0  07:30              1.00
  XR-Pump-4            PUMP        95.00     0  03:50              1.00
  
  
  ***************************
  Flow Classification Summary
  ***************************
  
  -------------------------------------------------------------------------------------
                      Adjusted    ---------- Fraction of Time in Flow Class ---------- 
                       /Actual         Up    Down  Sub   Sup   Up    Down  Norm  Inlet 
  Conduit               Length    Dry  Dry   Dry   Crit  Crit  Crit  Crit  Ltd   Ctrl  
  -------------------------------------------------------------------------------------
  WS02003066WSF200        1.00   0.06  0.00  0.00  0.00  0.94  0.00  0.00  0.61  0.00
  WS02006287WS02006284    1.00   0.05  0.01  0.00  0.48  0.46  0.00  0.00  0.61  0.00
  WS02006284WS02006280    1.00   0.06  0.00  0.00  0.00  0.00  0.00  0.94  0.00  0.00
  WS02006280WS02006229    1.00   0.06  0.00  0.00  0.00  0.04  0.00  0.91  0.01  0.00
  WS02006229WS02006228    1.00   0.00  0.00  0.00  1.00  0.00  0.00  0.00  0.00  0.00
  WS02006256WS02006235    1.00   0.00  0.00  0.00  0.99  0.00  0.00  0.00  0.00  0.00
  WS02006253WS02006251    1.00   0.03  0.02  0.00  0.94  0.00  0.01  0.00  0.00  0.00
  WS02006252WS02006251    1.00   0.07  0.00  0.00  0.00  0.00  0.93  0.00  0.00  0.00
  WS02006251WS02006249    1.00   0.00  0.00  0.00  1.00  0.00  0.00  0.00  0.44  0.00
  WS02006249WS02006248    1.00   0.00  0.00  0.00  0.71  0.00  0.28  0.00  0.00  0.00
  WS02006248WS02006247    1.00   0.00  0.00  0.00  0.97  0.00  0.00  0.03  0.35  0.00
  WS02006247WS02006245    1.00   0.01  0.00  0.00  0.97  0.00  0.00  0.03  0.00  0.00
  WS02006245WS02006243    1.00   0.01  0.00  0.00  0.93  0.00  0.00  0.07  0.03  0.00
  WS02006243WS02006242    1.00   0.01  0.00  0.00  0.98  0.00  0.00  0.00  0.31  0.00
  WS02006242WS02006240    1.00   0.01  0.00  0.00  0.99  0.00  0.01  0.00  0.00  0.00
  WS02006240WS02006239    1.00   0.01  0.00  0.00  0.93  0.00  0.00  0.06  0.02  0.00
  WS02006239WS02006238    1.00   0.01  0.00  0.00  0.99  0.00  0.00  0.00  0.10  0.00
  WS02006238WS02006235    1.00   0.01  0.00  0.00  0.99  0.00  0.00  0.00  0.00  0.00
  WS02006235WS02006234    1.00   0.01  0.00  0.00  0.96  0.00  0.03  0.00  0.00  0.00
  WS02006234WS02006232    1.00   0.01  0.00  0.00  0.99  0.00  0.00  0.00  0.03  0.00
  WS02006232WS02006231    1.00   0.01  0.00  0.00  0.99  0.00  0.00  0.00  0.00  0.00
  WS02006231WS02006230    1.00   0.01  0.00  0.00  0.45  0.00  0.54  0.00  0.00  0.00
  WS02006230WS02006229    1.00   0.00  0.00  0.00  0.99  0.00  0.00  0.01  0.00  0.00
  WS02006228WS02006109    1.00   0.00  0.00  0.00  1.00  0.00  0.00  0.00  0.00  0.00
  WS02006116WS02004401    1.00   0.03  0.00  0.00  0.97  0.00  0.00  0.00  0.00  0.00
  WS02006115WS02006116    1.00   0.03  0.00  0.00  0.96  0.00  0.00  0.01  0.00  0.00
  WS02006113WS02006111    1.00   0.02  0.00  0.00  0.08  0.90  0.00  0.00  0.15  0.00
  WS02006112WS02006115    1.00   0.02  0.01  0.00  0.97  0.00  0.00  0.00  0.00  0.00
  WS02006111WS02006112    1.00   0.02  0.00  0.00  0.97  0.00  0.00  0.00  0.76  0.00
  WS02006110WS02006113    1.00   0.00  0.01  0.00  0.98  0.00  0.00  0.00  0.00  0.00
  WS02006109WS02006110    1.00   0.00  0.00  0.00  0.99  0.00  0.00  0.00  0.00  0.00
  WS02004411WS02004412    1.00   0.04  0.00  0.00  0.96  0.00  0.00  0.00  0.00  0.00
  WS02004401WS02004402    1.00   0.03  0.00  0.00  0.97  0.00  0.00  0.00  0.00  0.00
  WS02004413WS02003067    1.00   0.04  0.01  0.00  0.00  0.00  0.95  0.00  0.00  0.00
  WS02004412WS02004413    1.00   0.04  0.00  0.00  0.96  0.00  0.00  0.00  0.01  0.00
  WS02004410WS02004411    1.00   0.04  0.00  0.00  0.96  0.00  0.00  0.00  0.00  0.00
  WS02004409WS02004410    1.00   0.04  0.00  0.00  0.96  0.00  0.00  0.00  0.02  0.00
  WS02004407WS02004409    1.00   0.04  0.00  0.00  0.96  0.00  0.00  0.00  0.91  0.00
  WS02004406WS02004407    1.00   0.00  0.04  0.00  0.96  0.00  0.00  0.00  0.00  0.00
  WS02004405WS02004406    1.00   0.00  0.00  0.00  1.00  0.00  0.00  0.00  0.03  0.00
  WS02004404WS02004405    1.00   0.00  0.00  0.00  1.00  0.00  0.00  0.00  0.00  0.00
  WS02004403WS02004404    1.00   0.00  0.03  0.00  0.97  0.00  0.00  0.00  0.00  0.00
  WS02004402WS02004403    1.00   0.03  0.00  0.00  0.97  0.00  0.00  0.00  0.00  0.00
  WS02004139WS02001211    1.00   0.00  0.00  0.00  1.00  0.00  0.00  0.00  0.00  0.00
  WS02004138WS02004139    1.00   0.00  0.01  0.00  0.99  0.00  0.00  0.00  1.00  0.00
  WS02003067WS02003066    1.00   0.05  0.00  0.00  0.95  0.00  0.00  0.00  0.00  0.00
  WS02001213WS02003059    1.00   0.00  0.00  0.00  1.00  0.00  0.00  0.00  0.00  0.00
  WS02001212WS02001213    1.00   0.00  0.00  0.00  0.53  0.00  0.46  0.00  0.00  0.00
  WS02001211WS02001212    1.00   0.00  0.00  0.00  1.00  0.00  0.00  0.00  0.00  0.00
  WS02003072WS02003073    1.00   0.00  0.00  0.00  0.00  0.00  0.00  1.00  0.00  0.00
  WS02003069WS02003072    1.00   0.00  0.00  0.00  1.00  0.00  0.00  0.00  0.64  0.00
  WS02003060WS02003069    1.00   0.00  0.00  0.00  0.97  0.03  0.00  0.00  0.42  0.00
  WS02003059WS02003060    1.00   0.00  0.00  0.00  1.00  0.00  0.00  0.00  0.02  0.00
  HS02004901HS02004770    1.00   0.05  0.00  0.00  0.95  0.00  0.00  0.00  0.00  0.00
  HS02004876HS02004881    1.00   0.00  0.00  0.00  0.66  0.34  0.00  0.00  0.00  0.00
  HS02004870HS02004876    1.00   0.00  0.00  0.00  0.99  0.00  0.00  0.00  0.95  0.00
  HS02004842HS02004848    1.00   0.00  0.05  0.00  0.95  0.00  0.00  0.00  0.54  0.00
  HS02004837HS02004842    1.00   0.00  0.00  0.00  1.00  0.00  0.00  0.00  0.11  0.00
  HS02004830HS02004837    1.00   0.00  0.00  0.00  1.00  0.00  0.00  0.00  0.99  0.00
  HS02004824HS02004830    1.00   0.00  0.00  0.00  1.00  0.00  0.00  0.00  0.03  0.00
  HS02004817HS02004824    1.00   0.00  0.00  0.00  1.00  0.00  0.00  0.00  0.88  0.00
  HS02004770HS02004777    1.00   0.00  0.05  0.00  0.95  0.00  0.00  0.00  0.02  0.00
  HS02004799HS02004480    1.00   0.00  0.01  0.00  0.94  0.00  0.05  0.00  0.00  0.00
  HS02004792HS02004799    1.00   0.00  0.00  0.00  1.00  0.00  0.00  0.00  0.98  0.00
  HS02004788HS02004792    1.00   0.00  0.00  0.00  1.00  0.00  0.00  0.00  0.98  0.00
  HS02004785HS02004788    1.00   0.00  0.00  0.00  1.00  0.00  0.00  0.00  0.00  0.00
  HS02004777HS02004785    1.00   0.00  0.00  0.00  1.00  0.00  0.00  0.00  0.11  0.00
  HS02004480HS02004478    1.00   0.05  0.00  0.00  0.53  0.00  0.00  0.41  0.00  0.00
  HS02004479HS02004480    1.00   0.01  0.00  0.00  0.99  0.00  0.00  0.00  0.11  0.00
  HS02004862HS02004870    1.00   0.00  0.00  0.00  1.00  0.00  0.00  0.00  0.02  0.00
  HS02004848HS02004852    1.00   0.05  0.00  0.00  0.95  0.00  0.00  0.00  0.81  0.00
  HS02004856HS02004862    1.00   0.00  0.06  0.00  0.94  0.00  0.00  0.00  0.84  0.00
  HS02004852HS02004856    1.00   0.05  0.00  0.00  0.95  0.00  0.00  0.00  0.70  0.00
  HS02004802HS02004478    1.00   0.05  0.00  0.00  0.94  0.00  0.00  0.00  0.02  0.00
  HS02004478WS02006287    1.00   0.06  0.00  0.00  0.57  0.37  0.00  0.00  0.58  0.00
  HS02004817HS02004807    1.00   0.00  0.05  0.00  0.95  0.00  0.00  0.00  0.01  0.00
  HS02004807HS02004802    1.00   0.05  0.00  0.00  0.94  0.00  0.00  0.00  0.00  0.00
  YS02001759YS02001757    1.00   0.00  0.00  0.00  1.00  0.00  0.00  0.00  0.15  0.00
  YS02001762YS02001759    1.00   0.00  0.00  0.00  1.00  0.00  0.00  0.00  0.02  0.00
  YS02001765YS02001762    1.00   0.00  0.00  0.00  1.00  0.00  0.00  0.00  0.13  0.00
  YS02001770YS02001767    1.00   0.00  0.00  0.00  1.00  0.00  0.00  0.00  0.00  0.00
  YS02001774YS02001770    1.00   0.00  0.05  0.00  0.95  0.00  0.00  0.00  0.02  0.00
  YS02001779YS02001774    1.00   0.00  0.00  0.00  1.00  0.00  0.00  0.00  0.16  0.00
  YS02001649YS02001757    1.00   0.00  0.00  0.00  1.00  0.00  0.00  0.00  0.15  0.00
  YS02001767YS02001765    1.00   0.00  0.00  0.00  1.00  0.00  0.00  0.00  0.00  0.00
  YS02006561YS02001783    1.00   0.06  0.00  0.00  0.89  0.05  0.00  0.00  0.43  0.00
  YS02001783YS02001784    1.00   0.00  0.06  0.00  0.94  0.00  0.00  0.00  0.00  0.00
  YS02001784YS02001785    1.00   0.00  0.00  0.00  1.00  0.00  0.00  0.00  0.16  0.00
  YS02001788YS02001790    1.00   0.00  0.00  0.00  0.96  0.04  0.00  0.00  0.17  0.00
  YS02001790YS02001791    1.00   0.00  0.00  0.00  0.90  0.10  0.00  0.00  0.01  0.00
  YS02001791YS02001793    1.00   0.00  0.00  0.00  0.90  0.10  0.00  0.00  0.00  0.00
  YS02001910YS02001907    1.00   0.00  0.00  0.00  0.99  0.00  0.00  0.01  0.12  0.00
  YS02001786YS02001788    1.00   0.00  0.00  0.00  0.97  0.03  0.00  0.00  0.00  0.00
  YS02001915YS02001910    1.00   0.00  0.00  0.00  0.99  0.01  0.00  0.00  0.13  0.00
  YS02001918YS02001915    1.00   0.00  0.00  0.00  0.99  0.00  0.00  0.00  0.44  0.00
  YS02001923YS02001920    1.00   0.00  0.00  0.00  1.00  0.00  0.00  0.00  0.64  0.00
  YS02001926YS02001923    1.00   0.00  0.04  0.00  0.43  0.00  0.53  0.00  0.00  0.00
  YS02001929YS02001926    1.00   0.00  0.05  0.00  0.95  0.00  0.00  0.00  0.56  0.00
  YS02001920YS02001918    1.00   0.00  0.00  0.00  1.00  0.00  0.00  0.00  0.00  0.00
  YS02001629YS02163301    1.00   0.06  0.00  0.00  0.94  0.00  0.00  0.00  0.00  0.00
  YS02001619YS02001622    1.00   0.05  0.00  0.00  0.95  0.00  0.00  0.00  0.00  0.00
  YS02001622YS02001625    1.00   0.05  0.00  0.00  0.95  0.00  0.00  0.00  0.03  0.00
  YS02001625YS02001629    1.00   0.05  0.01  0.00  0.93  0.00  0.01  0.00  0.00  0.00
  YS02163301YS02001633    1.00   0.00  0.06  0.00  0.94  0.00  0.00  0.00  0.00  0.00
  YS02163601YS02164001    1.00   0.00  0.04  0.00  0.96  0.00  0.00  0.00  0.00  0.00
  YS02164001YS02001641    1.00   0.00  0.04  0.00  0.96  0.00  0.00  0.00  0.06  0.00
  YS02001641YS02001644    1.00   0.00  0.00  0.00  1.00  0.00  0.00  0.00  0.00  0.00
  YS02001647YS02001649    1.00   0.00  0.06  0.00  0.94  0.00  0.00  0.00  0.01  0.00
  YS02006553YS02006556    1.00   0.00  0.00  0.00  1.00  0.00  0.00  0.00  0.03  0.00
  YS02006556YS02006558    1.00   0.00  0.00  0.00  1.00  0.00  0.00  0.00  0.00  0.00
  YSB6556YSB1171          1.00   0.02  0.03  0.00  0.95  0.00  0.00  0.00  0.00  0.00
  YS02001907YS02006553    1.00   0.00  0.00  0.00  0.99  0.00  0.00  0.00  0.00  0.00
  YS02006558YS02006561    1.00   0.06  0.00  0.00  0.47  0.47  0.00  0.00  0.38  0.00
  YS02001633YS02163601    1.00   0.00  0.00  0.00  1.00  0.00  0.00  0.00  0.15  0.00
  YS02001644YS02001647    1.00   0.00  0.06  0.00  0.94  0.00  0.00  0.00  0.00  0.00
  YS02001745YS02001748    1.00   0.00  0.00  0.00  0.92  0.00  0.00  0.08  0.00  0.00
  YS02001748YS02001751    1.00   0.00  0.00  0.00  0.98  0.02  0.00  0.00  0.13  0.00
  YS02001751YS02001754    1.00   0.00  0.00  0.00  0.93  0.00  0.00  0.07  0.01  0.00
  YS02001754YS02001757    1.00   0.00  0.00  0.00  1.00  0.00  0.00  0.00  0.16  0.00
  YS02001882YS02001884    1.00   0.06  0.00  0.00  0.94  0.00  0.00  0.00  0.00  0.00
  YS02001884YS02001887    1.00   0.04  0.01  0.00  0.95  0.00  0.00  0.00  0.00  0.00
  YS02001890YS02001895    1.00   0.00  0.06  0.00  0.94  0.00  0.00  0.00  0.00  0.00
  YS02001895YS02001898    1.00   0.06  0.00  0.00  0.94  0.00  0.01  0.00  0.00  0.00
  YS02001898YS02001901    1.00   0.06  0.00  0.00  0.94  0.00  0.00  0.00  0.00  0.00
  YS02001901YS02001904    1.00   0.06  0.00  0.00  0.94  0.00  0.00  0.00  0.00  0.00
  YS02001904YS02001907    1.00   0.00  0.06  0.00  0.94  0.00  0.00  0.00  0.00  0.00
  YS02001887YS02001890    1.00   0.00  0.00  0.00  0.99  0.00  0.01  0.00  0.00  0.00
  YS02001652YS02001649    1.00   0.00  0.00  0.00  1.00  0.00  0.00  0.00  0.15  0.00
  YS02001655YS02001652    1.00   0.00  0.00  0.00  0.93  0.00  0.00  0.06  0.01  0.00
  YS02001658YS02001655    1.00   0.00  0.06  0.00  0.93  0.02  0.00  0.00  0.01  0.00
  YS02001661YS02001658    1.00   0.06  0.00  0.00  0.91  0.03  0.00  0.00  0.00  0.00
  YS02001664YS02001661    1.00   0.05  0.00  0.00  0.92  0.03  0.00  0.00  0.07  0.00
  YSB1154YSB6556          1.00   0.05  0.00  0.00  0.95  0.00  0.00  0.00  0.01  0.00
  YSB1174YSB1171          1.00   0.03  0.01  0.00  0.95  0.00  0.00  0.00  0.00  0.00
  YSB1171HS02004479       1.00   0.02  0.00  0.00  0.97  0.00  0.00  0.02  0.10  0.00
  HS02004881HS02006253    1.00   0.03  0.00  0.00  0.43  0.12  0.00  0.42  0.35  0.00
  YS02001793JiankangQianchi    1.00   0.00  0.00  0.00  0.96  0.04  0.00  0.00  0.11  0.00
  YS02001757CaochengTiaoxuchi    1.00   0.00  0.07  0.00  0.88  0.05  0.00  0.00  0.00  0.00
  WSF200WS02003060        1.00   0.00  0.06  0.00  0.22  0.72  0.00  0.00  0.40  0.00
  1                       1.00   0.00  0.00  0.00  0.00  1.00  0.00  0.00  0.36  0.00
  2                       1.00   0.76  0.00  0.00  0.00  0.24  0.00  0.00  0.06  0.00
  3                       1.00   0.43  0.00  0.00  0.00  0.57  0.00  0.00  0.22  0.00
  4                       1.00   1.00  0.00  0.00  0.00  0.00  0.00  0.00  0.00  0.00
  
  
  *************************
  Conduit Surcharge Summary
  *************************
  
  ----------------------------------------------------------------------------
                                                           Hours        Hours 
                         --------- Hours Full --------   Above Full   Capacity
  Conduit                Both Ends  Upstream  Dnstream   Normal Flow   Limited
  ----------------------------------------------------------------------------
  WS02006229WS02006228        2.05      2.09      2.05      2.43         2.05
  WS02006256WS02006235        4.97      4.97      6.85      1.58         0.01
  WS02006252WS02006251        0.07      0.07      0.19      0.16         0.01
  WS02006251WS02006249        0.01      0.01      0.01      0.06         0.01
  WS02006249WS02006248        0.01      0.01      0.01      1.39         0.01
  WS02006248WS02006247        0.01      0.01      0.22      0.01         0.01
  WS02006247WS02006245        0.31      0.32      0.32      2.45         0.16
  WS02006245WS02006243        0.37      0.37      0.43      0.01         0.01
  WS02006243WS02006242        0.45      0.45      1.31      0.01         0.01
  WS02006242WS02006240        1.16      1.16      1.52      0.18         0.01
  WS02006240WS02006239        1.24      1.24      1.41      0.01         0.01
  WS02006239WS02006238        1.56      1.56      1.66      0.01         0.01
  WS02006238WS02006235        1.63      1.63      1.75      0.01         0.01
  WS02006235WS02006234        1.48      1.48      1.58      4.52         0.14
  WS02006234WS02006232        1.54      1.54      1.95      0.01         0.01
  WS02006232WS02006231        1.49      1.49      1.95      0.01         0.01
  WS02006231WS02006230        1.45      1.45      1.52      4.90         0.13
  WS02006230WS02006229        2.23      2.30      2.23      5.51         2.03
  WS02006228WS02006109        2.07      2.16      2.07      2.75         2.07
  WS02006116WS02004401        1.06      1.06      1.09      0.58         0.56
  WS02006115WS02006116        0.47      0.47      0.48      0.40         0.39
  WS02006113WS02006111        0.01      0.01      0.01      0.02         0.01
  WS02006112WS02006115        0.44      0.44      1.84      0.01         0.01
  WS02006111WS02006112        0.01      0.01      2.49      0.01         0.01
  WS02006110WS02006113        0.01      0.01      2.12      0.01         0.01
  WS02006109WS02006110        1.81      1.81      2.16      1.81         0.01
  WS02004411WS02004412        0.01      0.01      0.01      0.95         0.01
  WS02004401WS02004402        1.09      1.09      1.20      0.15         0.16
  WS02004410WS02004411        0.01      0.01      0.01      0.54         0.01
  WS02004409WS02004410        0.01      0.01      0.01      0.41         0.01
  WS02004406WS02004407        0.01      0.01      1.45      0.01         0.01
  WS02004405WS02004406        1.45      1.53      1.45      1.82         1.44
  WS02004404WS02004405        1.53      1.61      1.53      5.17         1.53
  WS02004403WS02004404        1.22      1.22      1.61      0.01         0.01
  WS02004402WS02004403        1.20      1.20      1.22      1.02         1.02
  WS02003072WS02003073        0.01      0.01      0.01      1.97         0.01
  HS02004876HS02004881        0.01      0.01      0.01      0.86         0.01
  HS02004817HS02004824        0.01      0.01      0.32      0.01         0.01
  HS02004785HS02004788        0.01      0.01      0.01      0.81         0.01
  HS02004480HS02004478        0.01      0.01      0.01      1.81         0.01
  HS02004817HS02004807        0.01      0.01      0.32      0.01         0.01
  YS02001759YS02001757        6.35      6.35      6.36      0.01         0.01
  YS02001762YS02001759        6.34      6.34      6.35      0.01         0.01
  YS02001765YS02001762        6.34      6.34      6.34      0.01         0.01
  YS02001770YS02001767        6.33      6.33      6.33      1.76         0.49
  YS02001774YS02001770        6.33      6.33      6.34      0.01         0.01
  YS02001779YS02001774        6.31      6.31      6.34      0.01         0.01
  YS02001649YS02001757        6.34      6.34      6.36      0.01         0.01
  YS02001767YS02001765        6.33      6.33      6.34      0.01         0.01
  YS02006561YS02001783        2.44      2.44      2.94      0.01         0.01
  YS02001783YS02001784        2.93      2.94      2.97      2.81         2.74
  YS02001784YS02001785        2.90      2.97      2.90      3.52         2.90
  YS02001788YS02001790        2.89      2.89      6.06      0.01         0.01
  YS02001790YS02001791        6.06      6.06      6.23      2.32         2.30
  YS02001791YS02001793        6.23      6.23      6.25      0.01         0.01
  YS02001910YS02001907        2.74      2.74      3.04      0.01         0.01
  YS02001786YS02001788        2.89      2.90      2.89      3.19         2.89
  YS02001915YS02001910        2.56      2.56      2.74      0.01         0.01
  YS02001918YS02001915        2.34      2.34      2.56      0.01         0.01
  YS02001923YS02001920        2.17      2.17      2.38      0.01         0.01
  YS02001926YS02001923        0.01      0.01      0.01      0.01         0.01
  YS02001929YS02001926        0.01      0.01      0.01      0.01         0.01
  YS02001920YS02001918        2.34      2.34      2.38      0.01         0.01
  YS02001629YS02163301        6.33      6.33      6.33      0.01         0.01
  YS02001619YS02001622        6.31      6.31      6.31      0.01         0.02
  YS02001622YS02001625        6.31      6.31      6.32      0.01         0.01
  YS02001625YS02001629        6.31      6.31      6.32      0.01         0.01
  YS02163301YS02001633        6.33      6.33      6.33      0.01         0.01
  YS02163601YS02164001        6.33      6.33      6.34      0.01         0.01
  YS02164001YS02001641        6.33      6.33      6.34      0.01         0.02
  YS02001641YS02001644        6.34      6.34      6.34      3.05         3.20
  YS02001647YS02001649        6.32      6.32      6.34      0.01         0.01
  YS02006553YS02006556        2.90      2.90      3.11      0.01         0.01
  YS02006556YS02006558        2.96      2.96      3.16      0.01         0.01
  YSB6556YSB1171              0.01      0.01      0.43      0.01         0.01
  YS02001907YS02006553        3.56      3.56      3.78      0.01         0.01
  YS02006558YS02006561        2.60      2.88      2.60      3.40         2.60
  YS02001633YS02163601        6.33      6.33      6.34      0.01         0.01
  YS02001644YS02001647        6.32      6.32      6.34      0.01         0.01
  YS02001745YS02001748        0.72      0.72      6.28      0.01         0.01
  YS02001748YS02001751        6.29      6.29      6.30      0.01         0.01
  YS02001751YS02001754        6.30      6.30      6.31      0.01         0.01
  YS02001754YS02001757        6.31      6.31      6.36      0.01         0.01
  YS02001882YS02001884        2.57      2.57      2.60      0.01         0.01
  YS02001884YS02001887        2.65      2.65      2.68      0.01         0.01
  YS02001890YS02001895        2.54      2.54      2.76      0.01         0.01
  YS02001895YS02001898        2.53      2.53      2.54      0.01         0.01
  YS02001898YS02001901        2.55      2.55      2.64      0.01         0.01
  YS02001901YS02001904        2.62      2.62      2.64      0.01         0.01
  YS02001904YS02001907        2.62      2.62      3.13      0.01         0.01
  YS02001887YS02001890        2.70      2.70      2.73      1.55         0.01
  YS02001652YS02001649        6.32      6.32      6.34      0.01         0.01
  YS02001655YS02001652        6.30      6.30      6.31      0.01         0.01
  YS02001658YS02001655        6.29      6.29      6.30      0.01         0.01
  YS02001661YS02001658        1.12      1.12      6.29      0.01         0.01
  YS02001664YS02001661        0.01      0.01      2.17      0.01         0.01
  YSB1174YSB1171              0.01      0.01      0.16      0.01         0.01
  YS02001793JiankangQianchi        6.24      6.24      6.69      0.01         0.01
  YS02001757CaochengTiaoxuchi        5.88      5.88      6.36      0.01         0.01
  
  
  ***************
  Pumping Summary
  ***************
  
  ---------------------------------------------------------------------------------------------------------
                                                  Min       Avg       Max     Total     Power    % Time Off
                        Percent   Number of      Flow      Flow      Flow    Volume     Usage    Pump Curve
  Pump                 Utilized   Start-Ups       LPS       LPS       LPS  10^6 ltr     Kw-hr    Low   High
  ---------------------------------------------------------------------------------------------------------
  CC-Pump-1               15.88           3      0.00    136.77    200.00     0.576      0.73    0.0   19.2
  CC-Pump-2               34.06           7      0.00    119.19    200.00     1.080      0.77    0.0    0.0
  JK-Pump-1               21.27           5      0.00    138.75    299.99     0.572      2.69    0.0    0.0
  JK-Pump-2               31.90           6      0.00    208.05    300.00     1.620      8.42    0.0    0.0
  XR-Pump-1               61.70           8      0.00     57.48     95.00     1.026      5.35    0.0    0.0
  XR-Pump-2               12.76           3      0.00     44.70     94.97     0.171      0.76    0.0    0.0
  XR-Pump-3               12.77           3      0.00     50.06     94.96     0.171      0.76    0.0    0.0
  XR-Pump-4               29.78           6      0.00     55.97     95.00     0.484      2.17    0.0    0.0
  

  Analysis begun on:  Thu Jan  6 19:02:07 2022
  Analysis ended on:  Thu Jan  6 19:02:09 2022
  Total elapsed time: 00:00:02