
  EPA STORM WATER MANAGEMENT MODEL - VERSION 5.1 (Build 5.3.0.dev0)
  --------------------------------------------------------------

  WARNING 04: minimum elevation drop used for Conduit WS02004404WS02004405
  WARNING 03: negative offset ignored for Link YS02001904YS02001907
  
  *********************************************************
  NOTE: The summary statistics displayed in this report are
  based on results found at every computational time step,  
  not just on results from each reporting time step.
  *********************************************************
  
  ****************
  Analysis Options
  ****************
  Flow Units ............... LPS
  Process Models:
    Rainfall/Runoff ........ YES
    RDII ................... NO
    Snowmelt ............... NO
    Groundwater ............ NO
    Flow Routing ........... YES
    Ponding Allowed ........ NO
    Water Quality .......... NO
  Infiltration Method ...... HORTON
  Flow Routing Method ...... DYNWAVE
  Surcharge Method ......... EXTRAN
  Starting Date ............ 08/28/2015 08:00:00
  Ending Date .............. 08/28/2015 15:50:00
  Antecedent Dry Days ...... 8.0
  Report Time Step ......... 00:01:00
  Wet Time Step ............ 00:01:00
  Dry Time Step ............ 00:01:00
  Routing Time Step ........ 5.00 sec
  Variable Time Step ....... YES
  Maximum Trials ........... 8
  Number of Threads ........ 4
  Head Tolerance ........... 0.001500 m
  
  
  **************************        Volume         Depth
  Runoff Quantity Continuity     hectare-m            mm
  **************************     ---------       -------
  Total Precipitation ......        10.887        23.836
  Evaporation Loss .........         0.000         0.000
  Infiltration Loss ........         2.344         5.132
  Surface Runoff ...........         7.303        15.990
  Final Storage ............         1.241         2.717
  Continuity Error (%) .....        -0.012
  
  
  **************************        Volume        Volume
  Flow Routing Continuity        hectare-m      10^6 ltr
  **************************     ---------     ---------
  Dry Weather Inflow .......         0.616         6.165
  Wet Weather Inflow .......         7.302        73.018
  Groundwater Inflow .......         0.000         0.000
  RDII Inflow ..............         0.000         0.000
  External Inflow ..........         0.102         1.024
  External Outflow .........         1.270        12.700
  Flooding Loss ............         6.176        61.763
  Evaporation Loss .........         0.000         0.000
  Exfiltration Loss ........         0.000         0.000
  Initial Stored Volume ....         0.076         0.761
  Final Stored Volume ......         0.650         6.502
  Continuity Error (%) .....         0.003
  
  
  *************************
  Highest Continuity Errors
  *************************
  Node YS02001884 (9.96%)
  Node HS02004842 (8.73%)
  Node HS02004817 (1.69%)
  Node YSB1171 (1.47%)
  Node YS02163301 (1.28%)
  
  
  ***************************
  Time-Step Critical Elements
  ***************************
  Link 3 (40.54%)
  Link WS02006252WS02006251 (38.90%)
  Link YS02006556YS02006558 (4.43%)
  Link WS02006238WS02006235 (3.22%)
  Link WS02006280WS02006229 (2.59%)
  
  
  ********************************
  Highest Flow Instability Indexes
  ********************************
  Link WS02006113WS02006111 (34)
  Link YS02163601YS02164001 (26)
  Link YS02163301YS02001633 (24)
  Link YS02001629YS02163301 (24)
  Link YS02164001YS02001641 (23)
  
  
  *************************
  Routing Time Step Summary
  *************************
  Minimum Time Step           :     0.50 sec
  Average Time Step           :     1.09 sec
  Maximum Time Step           :     5.00 sec
  Percent in Steady State     :    -0.00
  Average Iterations per Step :     3.42
  Percent Not Converging      :    11.77
  
  
  ***************************
  Subcatchment Runoff Summary
  ***************************
  
  ------------------------------------------------------------------------------------------------------------------------------
                            Total      Total      Total      Total     Imperv       Perv      Total       Total     Peak  Runoff
                           Precip      Runon       Evap      Infil     Runoff     Runoff     Runoff      Runoff   Runoff   Coeff
  Subcatchment                 mm         mm         mm         mm         mm         mm         mm    10^6 ltr      LPS
  ------------------------------------------------------------------------------------------------------------------------------
  sub0                      23.84       0.00       0.00       1.03      20.90       0.64      21.54        0.02     4.74   0.904
  sub1                      23.84       0.00       0.00       1.74      19.95       0.88      20.83        0.14    30.53   0.874
  sub2                      23.84       0.00       0.00       6.87      14.10       1.95      16.05        0.15    28.29   0.673
  sub3                      23.84       0.00       0.00       7.14      14.06       1.68      15.74        0.35    61.76   0.660
  sub4                      23.84       0.00       0.00       1.87      19.78       0.75      20.54        0.43    72.83   0.862
  sub5                      23.84       0.00       0.00       1.08      20.85       0.59      21.44        0.24    54.28   0.899
  sub7                      23.84       0.00       0.00       1.37      20.44       0.77      21.21        0.07    17.57   0.890
  sub8                      23.84       0.00       0.00       1.38      20.42       0.76      21.19        0.14    32.08   0.889
  sub9                      23.84       0.00       0.00       1.39      20.42       0.76      21.18        0.10    23.95   0.889
  sub10                     23.84       0.00       0.00       1.24      20.63       0.67      21.30        0.23    53.40   0.894
  sub11                     23.84       0.00       0.00       1.22      20.65       0.69      21.34        0.25    59.71   0.895
  sub12                     23.84       0.00       0.00       1.98      19.55       1.11      20.66        0.18    46.17   0.867
  sub14                     23.84       0.00       0.00       1.39      20.42       0.76      21.18        0.20    47.08   0.888
  sub15                     23.84       0.00       0.00       5.16      15.70       1.99      17.70        0.30    64.58   0.742
  sub16                     23.84       0.00       0.00       5.46      15.05       2.40      17.45        0.18    41.69   0.732
  sub17                     23.84       0.00       0.00       5.32      15.27       2.31      17.58        0.15    34.22   0.738
  sub22                     23.84       0.00       0.00       7.63      12.80       2.62      15.42        0.97   202.91   0.647
  sub23                     23.84       0.00       0.00       6.37      14.15       2.45      16.60        0.79   171.10   0.696
  sub60                     23.84       0.00       0.00       2.46      17.68       0.40      18.08        5.48   635.50   0.759
  sub61                     23.84       0.00       0.00       3.48      17.44       0.57      18.00        5.55   687.97   0.755
  sub62                     23.84       0.00       0.00       1.52      19.11       0.39      19.50        5.99   726.55   0.818
  sub63                     23.84       0.00       0.00       6.22      15.11       0.70      15.81        4.78   606.27   0.663
  sub64                     23.84       0.00       0.00       3.15      17.01       0.42      17.43        5.30   611.50   0.731
  sub65                     23.84       0.00       0.00       2.70      17.34       0.40      17.73        5.45   625.37   0.744
  sub66                     23.84       0.00       0.00       6.42      14.44       0.49      14.93        4.58   541.58   0.626
  sub67                     23.84       0.00       0.00       1.46      19.71       0.45      20.16        6.22   787.40   0.846
  sub68                     23.84       0.00       0.00       2.78      18.22       0.56      18.78        5.78   724.10   0.788
  sub69                     23.84       0.00       0.00       2.86      18.50       0.72      19.22        4.49   586.55   0.806
  sub70                     23.84      19.62       0.00       9.95      26.14       3.78      29.92        6.85   801.71   0.689
  sub71                     23.84       0.00       0.00       1.54      18.81       0.36      19.18        4.53   536.91   0.805
  sub72                     23.84       0.00       0.00       1.45      16.32       0.22      16.55        3.37   330.66   0.694
  sub73                     23.84      29.13       0.00       9.95      31.58       5.28      36.86        8.66   884.85   0.696
  sub74                     23.84       0.00       0.00      17.30       5.48       0.57       6.05        2.42   323.16   0.254
  
  
  ******************
  Node Depth Summary
  ******************
  
  ---------------------------------------------------------------------------------
                                 Average  Maximum  Maximum  Time of Max    Reported
                                   Depth    Depth      HGL   Occurrence   Max Depth
  Node                 Type       Meters   Meters   Meters  days hr:min      Meters
  ---------------------------------------------------------------------------------
  WS02001211           JUNCTION     0.52     0.68     5.52     0  02:01        0.68
  WS02001212           JUNCTION     0.28     0.43     5.49     0  02:01        0.43
  WS02001213           JUNCTION     0.52     0.72     5.48     0  01:41        0.71
  WS02003069           JUNCTION     0.38     0.60     5.19     0  01:43        0.60
  WS02003072           JUNCTION     0.44     0.66     5.03     0  01:44        0.66
  WS02003073           JUNCTION     0.26     0.41     4.47     0  01:45        0.41
  WS02003060           JUNCTION     0.34     0.53     5.46     0  01:42        0.53
  WS02003066           JUNCTION     0.24     0.37     5.92     0  01:42        0.37
  WS02003059           JUNCTION     0.59     0.78     5.47     0  02:02        0.78
  WS02003067           JUNCTION     0.57     0.80     6.12     0  01:38        0.80
  WS02004401           JUNCTION     0.71     1.26     7.26     0  01:33        1.17
  WS02004402           JUNCTION     0.74     1.32     7.28     0  01:33        1.17
  WS02004403           JUNCTION     0.75     1.32     7.25     0  01:33        1.16
  WS02004404           JUNCTION     0.82     1.37     7.22     0  01:33        1.21
  WS02004406           JUNCTION     0.81     1.22     7.05     0  01:33        1.14
  WS02004409           JUNCTION     0.51     0.90     6.67     0  01:39        0.90
  WS02004410           JUNCTION     0.53     0.89     6.61     0  01:39        0.89
  WS02004411           JUNCTION     0.54     0.88     6.56     0  01:39        0.88
  WS02004412           JUNCTION     0.55     0.87     6.51     0  01:39        0.86
  WS02004413           JUNCTION     0.70     1.00     6.47     0  01:39        1.00
  WS02004405           JUNCTION     0.81     1.33     7.18     0  01:33        1.18
  WS02006109           JUNCTION     0.81     1.38     8.00     0  01:36        1.38
  WS02006110           JUNCTION     0.78     1.21     7.80     0  01:36        1.20
  WS02006111           JUNCTION     0.27     0.75     7.46     0  01:36        0.75
  WS02006112           JUNCTION     0.90     1.48     7.36     0  01:35        1.47
  WS02006113           JUNCTION     0.36     0.72     7.62     0  01:36        0.72
  WS02006115           JUNCTION     0.62     1.32     7.46     0  01:33        1.15
  WS02006116           JUNCTION     0.69     1.45     7.49     0  01:33        1.19
  WS02006230           JUNCTION     0.79     1.89     8.64     0  01:30        1.52
  WS02006231           JUNCTION     0.54     1.67     8.79     0  01:30        1.14
  WS02006232           JUNCTION     0.65     1.56     8.60     0  01:31        1.22
  WS02006234           JUNCTION     0.55     1.52     8.68     0  01:31        1.10
  WS02006235           JUNCTION     0.57     1.52     8.68     0  01:31        1.09
  WS02006238           JUNCTION     0.59     1.55     8.69     0  01:31        1.11
  WS02006240           JUNCTION     0.48     2.10     9.39     0  01:30        0.96
  WS02006242           JUNCTION     0.53     1.55     8.82     0  01:31        1.00
  WS02006243           JUNCTION     0.40     1.48     8.90     0  01:31        0.85
  WS02006245           JUNCTION     0.38     1.56     9.04     0  01:31        0.79
  WS02006247           JUNCTION     0.39     1.47     8.97     0  01:31        0.78
  WS02006248           JUNCTION     0.34     1.10     8.69     0  01:31        0.70
  WS02006249           JUNCTION     0.36     0.69     8.29     0  01:32        0.68
  WS02006239           JUNCTION     0.54     1.87     9.08     0  01:31        1.28
  WS02006251           JUNCTION     0.35     0.71     8.38     0  02:20        0.71
  WS02006252           JUNCTION     0.25     0.58     8.83     0  02:20        0.58
  WS02006253           JUNCTION     0.38     0.74     8.38     0  02:20        0.73
  WS02006256           JUNCTION     0.91     1.22     8.16     0  02:10        1.22
  WS02004138           JUNCTION     0.08     0.14     7.39     0  00:00        0.14
  WS02004407           JUNCTION     0.23     0.38     6.70     0  01:36        0.38
  WS02006228           JUNCTION     0.83     1.52     8.17     0  01:36        1.51
  WS02006229           JUNCTION     0.82     1.57     8.26     0  01:36        1.57
  WS02006280           JUNCTION     0.12     0.29     8.56     0  01:36        0.29
  WS02006284           JUNCTION     0.44     0.68     9.08     0  01:36        0.68
  WS02006287           JUNCTION     0.17     0.43     9.38     0  01:35        0.43
  WSF200               JUNCTION     0.22     0.39     5.63     0  01:42        0.39
  HS02004901           JUNCTION     0.18     0.40    10.23     0  01:33        0.40
  HS02004881           JUNCTION     0.02     0.06     9.09     0  01:36        0.06
  HS02004876           JUNCTION     0.07     0.18     9.21     0  01:36        0.18
  HS02004870           JUNCTION     0.03     0.11     9.39     0  01:36        0.11
  HS02004862           JUNCTION     0.04     0.12     9.50     0  01:37        0.12
  HS02004856           JUNCTION     0.10     0.16     9.59     0  01:37        0.16
  HS02004852           JUNCTION     0.03     0.09     9.60     0  01:37        0.09
  HS02004848           JUNCTION     0.03     0.08     9.68     0  01:37        0.08
  HS02004842           JUNCTION     0.35     0.41     9.68     0  01:37        0.41
  HS02004837           JUNCTION     0.05     0.10     9.68     0  01:37        0.10
  HS02004830           JUNCTION     0.06     0.13     9.60     0  01:36        0.13
  HS02004824           JUNCTION     0.05     0.17     9.57     0  01:35        0.17
  HS02004817           JUNCTION     0.50     0.74     9.59     0  01:35        0.74
  HS02004807           JUNCTION     0.18     0.41     9.58     0  01:36        0.40
  HS02004802           JUNCTION     0.22     0.44     9.56     0  01:36        0.44
  HS02004799           JUNCTION     0.20     0.51     9.72     0  01:34        0.51
  HS02004792           JUNCTION     0.08     0.24     9.76     0  01:33        0.24
  HS02004788           JUNCTION     0.06     0.17    10.07     0  01:34        0.17
  HS02004785           JUNCTION     0.10     0.27    10.17     0  01:33        0.27
  HS02004777           JUNCTION     0.20     0.41    10.21     0  01:33        0.41
  HS02004770           JUNCTION     0.18     0.39    10.22     0  01:33        0.39
  HS02004480           JUNCTION     0.15     0.42     9.66     0  01:34        0.42
  HS02004479           JUNCTION     0.19     0.46     9.66     0  01:34        0.46
  HS02004478           JUNCTION     0.11     0.32     9.54     0  01:36        0.32
  YS02001745           JUNCTION     0.82     1.04     8.56     0  03:01        1.04
  YS02001748           JUNCTION     1.22     2.27     9.35     0  01:32        1.46
  YS02001751           JUNCTION     1.40     2.20     9.08     0  01:32        1.64
  YS02001754           JUNCTION     1.64     2.15     8.76     0  01:32        1.89
  YS02001762           JUNCTION     1.84     2.08     8.48     0  02:55        2.08
  YS02001765           JUNCTION     1.79     2.03     8.48     0  02:55        2.02
  YS02001767           JUNCTION     1.76     1.98     8.47     0  02:55        1.97
  YS02001770           JUNCTION     1.75     1.95     8.44     0  02:35        1.95
  YS02001774           JUNCTION     1.81     2.02     8.45     0  01:31        1.99
  YS02001779           JUNCTION     1.54     1.68     8.37     0  01:30        1.68
  YS02001882           JUNCTION     1.00     1.79     8.51     0  01:36        1.63
  YS02001884           JUNCTION     1.09     1.86     8.48     0  01:36        1.74
  YS02001759           JUNCTION     1.87     2.12     8.49     0  02:56        2.12
  YS02001887           JUNCTION     1.17     1.88     8.41     0  01:36        1.81
  YS02001890           JUNCTION     1.19     1.81     8.32     0  01:36        1.81
  YS02001898           JUNCTION     0.95     1.65     8.39     0  01:36        1.56
  YS02001901           JUNCTION     1.07     1.74     8.35     0  01:36        1.67
  YS02001904           JUNCTION     1.04     1.67     8.30     0  01:36        1.63
  YS02001907           JUNCTION     1.37     1.96     8.25     0  01:36        1.96
  YS02001910           JUNCTION     1.17     2.01     8.52     0  01:37        1.79
  YS02001915           JUNCTION     0.98     1.96     8.68     0  01:37        1.62
  YS02001918           JUNCTION     0.69     1.81     8.88     0  01:37        1.31
  YS02001619           JUNCTION     1.34     1.61     8.54     0  01:31        1.50
  YS02001629           JUNCTION     1.68     1.85     8.40     0  01:31        1.85
  YS02001641           JUNCTION     1.77     1.96     8.39     0  01:32        1.93
  YS02001644           JUNCTION     1.77     1.92     8.35     0  01:32        1.92
  YS02001652           JUNCTION     1.65     2.16     8.76     0  01:33        1.87
  YS02001655           JUNCTION     1.42     2.20     9.05     0  01:32        1.67
  YS02001920           JUNCTION     0.78     2.14     9.15     0  01:38        1.41
  YS02001923           JUNCTION     0.57     2.03     9.29     0  01:37        1.18
  YS02001926           JUNCTION     0.53     1.90     9.35     0  01:38        1.61
  YS02001929           JUNCTION     0.35     1.78     9.47     0  01:38        1.78
  YS02001658           JUNCTION     1.15     2.30     9.44     0  01:32        1.44
  YS02001661           JUNCTION     0.92     2.42     9.82     0  01:33        1.26
  YS02001664           JUNCTION     0.43     0.73     8.66     0  01:33        0.70
  YS02001622           JUNCTION     1.36     1.62     8.52     0  01:31        1.51
  YS02001633           JUNCTION     1.78     1.98     8.43     0  01:32        1.95
  YS02001649           JUNCTION     1.84     2.05     8.44     0  01:33        2.05
  YS02001757           JUNCTION     1.97     2.21     8.47     0  02:44        2.21
  YS02001895           JUNCTION     0.95     1.62     8.37     0  01:36        1.56
  YS02001625           JUNCTION     1.64     1.78     8.38     0  01:31        1.78
  YS02163301           JUNCTION     1.71     1.90     8.42     0  01:32        1.89
  YS02163601           JUNCTION     1.82     2.03     8.43     0  01:32        1.99
  YS02164001           JUNCTION     1.76     1.96     8.42     0  01:32        1.92
  YS02001647           JUNCTION     1.62     1.83     8.44     0  01:32        1.79
  YSB1154              JUNCTION     0.33     0.61     9.67     0  01:34        0.61
  YSB6556              JUNCTION     0.22     0.50     9.67     0  01:34        0.50
  YSB1174              JUNCTION     0.28     0.56     9.67     0  01:34        0.56
  YSB1171              JUNCTION     0.48     0.76     9.67     0  01:34        0.76
  YS02006553           JUNCTION     1.37     2.15     8.43     0  01:36        1.97
  YS02006561           JUNCTION     0.64     1.95     8.61     0  01:36        1.09
  YS02006556           JUNCTION     1.33     2.32     8.63     0  01:36        1.94
  YS02006558           JUNCTION     1.37     2.42     8.69     0  01:36        1.98
  YS02001783           JUNCTION     0.99     2.39     8.53     0  01:36        1.48
  YS02001784           JUNCTION     0.99     2.24     8.31     0  01:36        1.42
  YS02001786           JUNCTION     0.91     2.23     8.26     0  01:35        1.26
  YS02001788           JUNCTION     0.84     2.28     8.26     0  01:35        1.13
  YS02001790           JUNCTION     1.05     1.96     7.60     0  01:35        1.30
  YS02001791           JUNCTION     1.09     2.72     8.19     0  01:35        1.28
  YS02001793           JUNCTION     1.61     2.55     7.38     0  01:34        1.80
  WS02004139           JUNCTION     0.45     0.61     5.52     0  02:00        0.61
  WSC                  OUTFALL      0.26     0.41     1.08     0  01:45        0.41
  3                    OUTFALL      0.06     0.22     6.22     0  02:10        0.22
  4                    OUTFALL      0.03     0.18     7.18     0  01:37        0.18
  5                    OUTFALL      0.00     0.00     5.00     0  00:00        0.00
  JK-storage           STORAGE      5.41     5.80     6.60     0  01:35        5.80
  CC-storage           STORAGE      1.18     1.48     8.48     0  02:45        1.48
  XR-storage           STORAGE      7.67     7.72     5.72     0  00:55        7.72
  
  
  *******************
  Node Inflow Summary
  *******************
  
  -------------------------------------------------------------------------------------------------
                                  Maximum  Maximum                  Lateral       Total        Flow
                                  Lateral    Total  Time of Max      Inflow      Inflow     Balance
                                   Inflow   Inflow   Occurrence      Volume      Volume       Error
  Node                 Type           LPS      LPS  days hr:min    10^6 ltr    10^6 ltr     Percent
  -------------------------------------------------------------------------------------------------
  WS02001211           JUNCTION      7.35   198.48     0  02:28       0.207        2.27       0.500
  WS02001212           JUNCTION      0.00   199.32     0  02:27           0        2.27       0.242
  WS02001213           JUNCTION      0.00   200.07     0  02:26           0        2.28       0.459
  WS02003069           JUNCTION      0.32   991.48     0  01:43     0.00902        10.3       0.112
  WS02003072           JUNCTION      0.00   991.11     0  01:43           0        10.3       0.166
  WS02003073           JUNCTION      1.82   995.65     0  01:44      0.0514        10.3       0.173
  WS02003060           JUNCTION     16.53   990.89     0  01:44       0.466        10.3       0.104
  WS02003066           JUNCTION      0.00   868.77     0  01:39           0        7.61       0.034
  WS02003059           JUNCTION      0.00   201.07     0  02:26           0         2.3       0.909
  WS02003067           JUNCTION      0.00   868.54     0  01:39           0        7.62       0.079
  WS02004401           JUNCTION      0.00   876.81     0  01:36           0        7.76       0.164
  WS02004402           JUNCTION      0.00   876.73     0  01:36           0        7.75       0.163
  WS02004403           JUNCTION      0.00   876.75     0  01:36           0        7.74       0.156
  WS02004404           JUNCTION      0.16   877.36     0  01:36     0.00457        7.73       0.126
  WS02004406           JUNCTION      0.00   877.57     0  01:36           0         7.7       0.308
  WS02004409           JUNCTION      0.00   876.84     0  01:36           0        7.68       0.091
  WS02004410           JUNCTION      0.00   869.81     0  01:38           0        7.67       0.118
  WS02004411           JUNCTION      0.00   868.51     0  01:38           0        7.66       0.133
  WS02004412           JUNCTION      0.00   868.53     0  01:39           0        7.65       0.159
  WS02004413           JUNCTION      0.00   868.60     0  01:39           0        7.64       0.258
  WS02004405           JUNCTION      0.04   878.55     0  01:36     0.00107        7.72       0.190
  WS02006109           JUNCTION      1.23   854.66     0  01:33      0.0347        7.67       0.121
  WS02006110           JUNCTION      0.00   854.55     0  01:33           0        7.66       0.135
  WS02006111           JUNCTION      0.00   842.83     0  01:36           0        7.65       0.003
  WS02006112           JUNCTION     34.22   877.68     0  01:36       0.151         7.8       0.215
  WS02006113           JUNCTION      0.00   854.59     0  01:33           0        7.65       0.048
  WS02006115           JUNCTION      0.00   877.68     0  01:36           0        7.78       0.145
  WS02006116           JUNCTION      0.00   877.03     0  01:37           0        7.77       0.110
  WS02006230           JUNCTION     10.28   346.19     0  03:28        0.29        3.63       0.157
  WS02006231           JUNCTION      0.00   334.00     0  03:29           0        3.32      -0.069
  WS02006232           JUNCTION      0.00   333.76     0  03:29           0         3.3       0.182
  WS02006234           JUNCTION      0.00   332.71     0  03:29           0        3.27      -0.066
  WS02006235           JUNCTION      0.00   332.09     0  03:29           0        3.45       0.095
  WS02006238           JUNCTION      0.00   267.04     0  02:20           0         2.5       0.022
  WS02006240           JUNCTION      0.00   267.14     0  02:20           0        2.44       0.027
  WS02006242           JUNCTION      0.00   267.27     0  02:20           0        2.42       0.047
  WS02006243           JUNCTION      0.00   295.96     0  01:31           0         2.4      -0.091
  WS02006245           JUNCTION      0.00   316.17     0  01:31           0         2.4       0.177
  WS02006247           JUNCTION      0.00   334.11     0  01:31           0         2.4       0.035
  WS02006248           JUNCTION      0.00   342.81     0  01:31           0         2.4      -0.108
  WS02006249           JUNCTION      0.00   478.00     0  02:20           0        2.97       0.152
  WS02006239           JUNCTION      0.00   267.09     0  02:20           0        2.46      -0.109
  WS02006251           JUNCTION      0.08   477.73     0  02:20     0.00217        2.99      -0.026
  WS02006252           JUNCTION      0.00   399.85     0  02:20           0        2.14       0.010
  WS02006253           JUNCTION      4.74   178.63     0  01:36      0.0174       0.844      -0.056
  WS02006256           JUNCTION      0.00   599.83     0  04:00           0        2.83       0.060
  WS02004138           JUNCTION      0.00   190.00     0  02:20           0        2.05       0.050
  WS02004407           JUNCTION      0.00   877.85     0  01:36           0        7.68       0.038
  WS02006228           JUNCTION      0.00   853.44     0  01:33           0        7.64       0.094
  WS02006229           JUNCTION      0.00   861.94     0  01:34           0         7.7       0.101
  WS02006280           JUNCTION      0.00   821.14     0  01:36           0        4.12       0.004
  WS02006284           JUNCTION      0.10   821.07     0  01:36      0.0027        4.12       0.023
  WS02006287           JUNCTION      0.00   821.00     0  01:36           0        4.12       0.018
  WSF200               JUNCTION      0.00   868.88     0  01:39           0        7.61       0.024
  HS02004901           JUNCTION     41.69    41.69     0  01:31       0.183       0.183       0.971
  HS02004881           JUNCTION     17.57   174.51     0  01:36      0.0714       0.818       0.074
  HS02004876           JUNCTION     30.53   157.86     0  01:36       0.138       0.747       0.075
  HS02004870           JUNCTION     32.08   127.64     0  01:36       0.135       0.609       0.018
  HS02004862           JUNCTION     28.49    96.84     0  01:37       0.155       0.474       0.038
  HS02004856           JUNCTION     23.95    68.40     0  01:36       0.102        0.32       0.455
  HS02004852           JUNCTION      0.00    45.40     0  01:37           0       0.218       0.028
  HS02004848           JUNCTION     61.76    61.76     0  01:40       0.354       0.354       0.014
  HS02004842           JUNCTION      0.00    18.52     0  01:52           0       0.149       9.567
  HS02004837           JUNCTION     59.75    74.34     0  01:37       0.414        0.55       0.147
  HS02004830           JUNCTION      0.15    74.45     0  01:37     0.00423        0.54       0.229
  HS02004824           JUNCTION     72.88   147.22     0  01:40        0.43       0.969       0.056
  HS02004817           JUNCTION      0.60   150.66     0  01:41      0.0169       0.985       1.720
  HS02004807           JUNCTION     59.71   205.98     0  01:37       0.248        1.22       0.359
  HS02004802           JUNCTION      0.00   204.83     0  01:39           0        1.22       0.326
  HS02004799           JUNCTION     47.08   525.52     0  01:33       0.202         2.5       0.119
  HS02004792           JUNCTION    203.19   478.63     0  01:33       0.982         2.3       0.017
  HS02004788           JUNCTION     66.25   277.11     0  01:34       0.351        1.32       0.029
  HS02004785           JUNCTION      0.15   210.95     0  01:33     0.00423       0.971       0.053
  HS02004777           JUNCTION      0.03   211.17     0  01:32    0.000846       0.971       0.540
  HS02004770           JUNCTION    171.10   212.05     0  01:32       0.791       0.973       0.317
  HS02004480           JUNCTION      0.00   623.58     0  01:34           0        2.92       0.035
  HS02004479           JUNCTION      0.00    98.35     0  01:34           0       0.432       0.171
  HS02004478           JUNCTION      0.00   820.97     0  01:36           0        4.12       0.008
  YS02001745           JUNCTION    635.50   635.50     0  03:01        5.48        5.48       0.216
  YS02001748           JUNCTION      0.04   635.83     0  03:01     0.00127        5.47       0.411
  YS02001751           JUNCTION      0.01   636.02     0  03:01     0.00031        5.45       0.441
  YS02001754           JUNCTION      0.26   636.43     0  03:01     0.00733        5.44       0.445
  YS02001762           JUNCTION      0.00   383.80     0  01:43           0        3.05       0.696
  YS02001765           JUNCTION      0.00   383.53     0  01:43           0        3.04       0.802
  YS02001767           JUNCTION      0.54   383.72     0  01:43      0.0151        3.07       1.172
  YS02001770           JUNCTION    726.70  1085.01     0  03:01           6        7.79       0.404
  YS02001774           JUNCTION      0.00   851.87     0  02:47           0        6.23       0.399
  YS02001779           JUNCTION      0.01   851.62     0  02:47    0.000141         6.2       0.247
  YS02001882           JUNCTION      0.00    47.06     0  01:34           0      0.0295       8.597
  YS02001884           JUNCTION      0.00    57.46     0  01:32           0      0.0656      11.065
  YS02001759           JUNCTION    688.01   890.01     0  01:47        5.55        6.78       0.334
  YS02001887           JUNCTION    787.85   787.85     0  03:01        6.23        6.26       0.144
  YS02001890           JUNCTION      0.00   787.86     0  03:01           0        6.22       0.156
  YS02001898           JUNCTION      0.00   558.45     0  01:37           0        5.24       0.055
  YS02001901           JUNCTION      0.00   559.01     0  01:37           0        5.24       0.143
  YS02001904           JUNCTION      0.00   558.98     0  01:37           0        5.23       0.122
  YS02001907           JUNCTION      0.00  1384.72     0  03:01           0        13.2       0.189
  YS02001910           JUNCTION      0.00   868.24     0  03:01           0        7.98       0.159
  YS02001915           JUNCTION    536.93   868.14     0  03:01        4.53        8.03       0.080
  YS02001918           JUNCTION      0.00   389.63     0  01:38           0        3.54       0.051
  YS02001619           JUNCTION    541.58   541.58     0  03:01        4.58        4.58       0.267
  YS02001629           JUNCTION      0.00   413.86     0  01:31           0        1.87       1.523
  YS02001641           JUNCTION      0.00   453.10     0  01:32           0        5.95       0.355
  YS02001644           JUNCTION    611.54  1882.16     0  03:01         5.3        19.6       0.133
  YS02001652           JUNCTION      0.00   607.47     0  03:01           0        4.73       0.475
  YS02001655           JUNCTION      0.15   607.39     0  03:01     0.00434        4.75       0.539
  YS02001920           JUNCTION      2.87   389.58     0  01:38      0.0809        3.52       0.096
  YS02001923           JUNCTION      0.04   368.70     0  01:37     0.00106        3.42       0.035
  YS02001926           JUNCTION      0.05   330.34     0  03:01     0.00147        3.39       0.105
  YS02001929           JUNCTION    330.66   372.57     0  01:37        3.37        3.37       0.017
  YS02001658           JUNCTION      0.00   607.12     0  03:01           0        4.77       0.501
  YS02001661           JUNCTION      0.00   805.94     0  01:48           0        4.95       0.188
  YS02001664           JUNCTION    606.27   606.27     0  03:01        4.78        4.96       0.118
  YS02001622           JUNCTION      0.00   541.63     0  03:01           0        4.57       0.689
  YS02001633           JUNCTION    625.57   625.57     0  03:01        5.46        6.65       0.481
  YS02001649           JUNCTION      0.00  1415.34     0  03:01           0          11       0.334
  YS02001757           JUNCTION      0.00  2171.18     0  01:47           0          12       0.760
  YS02001895           JUNCTION      0.00   558.08     0  01:37           0        5.24       0.117
  YS02001625           JUNCTION      0.00   743.84     0  03:01           0        5.19       0.773
  YS02163301           JUNCTION      0.00   307.59     0  01:30           0        1.87       1.293
  YS02163601           JUNCTION      0.11   453.12     0  01:32      0.0031        5.95       0.504
  YS02164001           JUNCTION      0.00   453.40     0  01:32           0        5.94       0.334
  YS02001647           JUNCTION      0.00   846.70     0  02:56           0        9.07       0.312
  YSB1154              JUNCTION     54.28    54.28     0  01:34       0.243       0.243       0.595
  YSB6556              JUNCTION      0.00    54.37     0  01:35           0       0.244       0.519
  YSB1174              JUNCTION     46.17    46.17     0  01:30       0.181       0.181       0.712
  YSB1171              JUNCTION      0.00    98.47     0  01:34           0       0.431       1.495
  YS02006553           JUNCTION      0.00   699.75     0  03:50           0        7.63       0.210
  YS02006561           JUNCTION      0.00  1037.00     0  01:35           0        13.4       0.005
  YS02006556           JUNCTION      0.00   699.81     0  03:50           0        7.64       0.150
  YS02006558           JUNCTION    724.98  1036.57     0  01:35         5.8        13.4       0.041
  YS02001783           JUNCTION      0.00  1009.74     0  01:35           0        13.4       0.055
  YS02001784           JUNCTION      1.06  1010.64     0  01:35      0.0299        13.4       0.083
  YS02001786           JUNCTION      0.06  1010.43     0  01:35     0.00159        13.4       0.101
  YS02001788           JUNCTION      0.07   978.92     0  01:35       0.002        13.4       0.101
  YS02001790           JUNCTION      0.15   974.18     0  03:01     0.00437        13.4       0.124
  YS02001791           JUNCTION      0.00   974.18     0  03:01           0        13.3       0.107
  YS02001793           JUNCTION      0.00   974.22     0  02:56           0        13.3       0.123
  WS02004139           JUNCTION      0.32   193.01     0  00:00     0.00905        2.06       0.728
  WSC                  OUTFALL       0.00   998.97     0  01:45           0        10.3       0.000
  3                    OUTFALL       0.00   552.19     0  02:10           0        1.84       0.000
  4                    OUTFALL       0.00   281.21     0  01:37           0       0.571       0.000
  5                    OUTFALL       0.00     0.00     0  00:00           0           0       0.000 ltr
  JK-storage           STORAGE       0.00  1021.80     0  01:34           0        13.5       0.148
  CC-storage           STORAGE       0.00  2171.30     0  01:47           0        6.15       1.064
  XR-storage           STORAGE    1408.02  1408.02     0  03:01        16.7        17.3       0.001
  
  
  **********************
  Node Surcharge Summary
  **********************
  
  Surcharging occurs when water rises above the top of the highest conduit.
  ---------------------------------------------------------------------
                                               Max. Height   Min. Depth
                                   Hours       Above Crown    Below Rim
  Node                 Type      Surcharged         Meters       Meters
  ---------------------------------------------------------------------
  WS02004401           JUNCTION        0.85          0.265        1.395
  WS02004402           JUNCTION        1.04          0.324        1.416
  WS02004403           JUNCTION        1.12          0.325        1.705
  WS02004404           JUNCTION        1.74          0.372        2.408
  WS02004406           JUNCTION        1.50          0.220        2.230
  WS02004405           JUNCTION        1.64          0.331        2.469
  WS02006109           JUNCTION        2.18          0.561        1.259
  WS02006110           JUNCTION        1.87          0.301        1.549
  WS02006112           JUNCTION        1.97          0.481        1.199
  WS02006115           JUNCTION        0.44          0.310        1.940
  WS02006116           JUNCTION        0.48          0.393        1.897
  WS02006230           JUNCTION        1.45          0.811        0.759
  WS02006231           JUNCTION        1.49          0.961        0.569
  WS02006232           JUNCTION        2.07          0.861        0.619
  WS02006234           JUNCTION        1.52          0.800        0.440
  WS02006235           JUNCTION        1.62          0.805        0.485
  WS02006238           JUNCTION        1.67          0.825        0.605
  WS02006240           JUNCTION        1.32          1.390        0.000
  WS02006242           JUNCTION        1.42          0.820        0.000
  WS02006243           JUNCTION        0.83          0.770        0.000
  WS02006245           JUNCTION        0.35          0.850        0.000
  WS02006247           JUNCTION        0.34          0.760        0.000
  WS02006248           JUNCTION        0.01          0.380        0.000
  WS02006239           JUNCTION        1.44          1.132        0.158
  WS02006252           JUNCTION        0.26          0.184        0.916
  WS02006228           JUNCTION        2.18          0.690        1.510
  HS02004817           JUNCTION        0.32          0.040        1.700
  YS02001745           JUNCTION        0.57          0.042        1.308
  YS02001748           JUNCTION        6.28          1.190        0.000
  YS02001751           JUNCTION        6.30          1.200        0.000
  YS02001754           JUNCTION        6.31          1.099        0.051
  YS02001762           JUNCTION        6.34          1.082        0.068
  YS02001765           JUNCTION        6.34          1.028        0.072
  YS02001767           JUNCTION        6.33          0.980        0.050
  YS02001770           JUNCTION        6.33          0.920        0.000
  YS02001774           JUNCTION        6.34          1.024        0.026
  YS02001779           JUNCTION        6.31          0.680        0.000
  YS02001882           JUNCTION        2.57          0.795        0.035
  YS02001884           JUNCTION        2.60          0.801        0.069
  YS02001759           JUNCTION        6.35          1.124        0.086
  YS02001887           JUNCTION        2.68          0.826        0.124
  YS02001890           JUNCTION        2.70          0.760        0.000
  YS02001898           JUNCTION        2.53          0.621        0.119
  YS02001901           JUNCTION        2.64          0.744        0.126
  YS02001904           JUNCTION        2.62          0.672        0.178
  YS02001907           JUNCTION        3.05          0.950        0.000
  YS02001910           JUNCTION        2.74          1.009        0.091
  YS02001915           JUNCTION        2.56          0.963        0.037
  YS02001918           JUNCTION        2.34          0.810        0.000
  YS02001619           JUNCTION        6.31          0.610        0.000
  YS02001629           JUNCTION        6.31          0.470        0.000
  YS02001641           JUNCTION        6.34          0.957        0.143
  YS02001644           JUNCTION        6.34          0.920        0.000
  YS02001652           JUNCTION        6.31          1.130        0.000
  YS02001655           JUNCTION        6.30          1.200        0.000
  YS02001920           JUNCTION        2.38          1.140        0.000
  YS02001923           JUNCTION        0.01          0.820        0.000
  YS02001926           JUNCTION        0.01          0.900        0.000
  YS02001929           JUNCTION        0.01          0.780        0.000
  YS02001658           JUNCTION        6.29          1.300        0.000
  YS02001661           JUNCTION        1.12          1.348        0.042
  YS02001622           JUNCTION        6.31          0.620        0.000
  YS02001633           JUNCTION        6.33          0.957        0.103
  YS02001649           JUNCTION        6.34          1.050        0.000
  YS02001757           JUNCTION        6.36          1.210        0.000
  YS02001895           JUNCTION        2.54          0.621        0.129
  YS02001625           JUNCTION        6.32          0.780        0.000
  YS02163301           JUNCTION        6.33          0.902        0.128
  YS02163601           JUNCTION        6.34          1.030        0.050
  YS02164001           JUNCTION        6.33          0.960        0.140
  YS02001647           JUNCTION        6.32          0.830        0.070
  YS02006553           JUNCTION        3.10          1.147        0.043
  YS02006561           JUNCTION        2.45          1.150        0.000
  YS02006556           JUNCTION        2.90          1.280        0.070
  YS02006558           JUNCTION        2.88          1.319        0.081
  YS02001783           JUNCTION        2.93          1.593        0.007
  YS02001784           JUNCTION        2.98          1.443        0.047
  YS02001786           JUNCTION        2.91          1.430        0.000
  YS02001788           JUNCTION        2.89          1.480        0.000
  YS02001790           JUNCTION        6.09          1.157        0.000
  YS02001791           JUNCTION        6.24          1.920        0.000
  YS02001793           JUNCTION        6.25          1.550        1.050
  
  
  *********************
  Node Flooding Summary
  *********************
  
  Flooding refers to all water that overflows a node, whether it ponds or not.
  --------------------------------------------------------------------------
                                                             Total   Maximum
                                 Maximum   Time of Max       Flood    Ponded
                        Hours       Rate    Occurrence      Volume     Depth
  Node                 Flooded       LPS   days hr:min    10^6 ltr    Meters
  --------------------------------------------------------------------------
  WS02006240              0.01     83.56      0  01:30       0.000     0.000
  WS02006242              0.01    230.49      0  01:31       0.000     0.000
  WS02006243              0.01    135.47      0  01:31       0.000     0.000
  WS02006245              0.01     91.56      0  01:31       0.000     0.000
  WS02006247              0.01    127.05      0  01:31       0.000     0.000
  WS02006248              0.01     85.23      0  01:31       0.000     0.000
  YS02001748              0.01    175.64      0  01:32       0.000     0.000
  YS02001751              0.01     13.66      0  01:32       0.000     0.000
  YS02001770              0.62    233.70      0  03:01       0.268     0.000
  YS02001779              4.33    851.40      0  02:47       6.182     0.000
  YS02001890              1.66    271.45      0  03:01       0.962     0.000
  YS02001907              2.20   1137.24      0  03:01       5.551     0.000
  YS02001918              0.01     82.39      0  01:38       0.000     0.000
  YS02001619              0.01     98.18      0  01:31       0.000     0.000
  YS02001629              0.01    403.53      0  01:31       0.005     0.000
  YS02001644              6.25   1882.05      0  03:01      18.872     0.000
  YS02001652              0.01      9.63      0  01:33       0.000     0.000
  YS02001655              0.01     70.65      0  01:32       0.000     0.000
  YS02001920              0.01     28.07      0  01:38       0.000     0.000
  YS02001923              0.01    155.78      0  01:38       0.000     0.000
  YS02001926              0.01     14.40      0  01:38       0.000     0.000
  YS02001929              0.01    226.53      0  01:38       0.000     0.000
  YS02001658              0.01    256.73      0  01:32       0.000     0.000
  YS02001622              0.01     91.45      0  01:31       0.000     0.000
  YS02001649              0.92    568.63      0  03:01       1.107     0.000
  YS02001757              0.34    106.43      0  03:01       0.090     0.000
  YS02001625              2.87    743.76      0  03:01       3.934     0.000
  YS02006561              0.01     94.97      0  01:36       0.000     0.000
  YS02001786              0.01    145.05      0  01:35       0.000     0.000
  YS02001788              0.01    137.62      0  01:35       0.000     0.000
  YS02001790              0.01    226.54      0  01:35       0.000     0.000
  YS02001791              0.01    164.01      0  01:35       0.000     0.000
  JK-storage              5.92    974.03      0  02:56      10.447     0.000
  XR-storage              6.90   1312.81      0  03:01      14.342     0.000
  
  
  **********************
  Storage Volume Summary
  **********************
  
  --------------------------------------------------------------------------------------------------
                         Average     Avg  Evap Exfil       Maximum     Max    Time of Max    Maximum
                          Volume    Pcnt  Pcnt  Pcnt        Volume    Pcnt     Occurrence    Outflow
  Storage Unit           1000 m3    Full  Loss  Loss       1000 m3    Full    days hr:min        LPS
  --------------------------------------------------------------------------------------------------
  JK-storage               0.272      93     0     0         0.291     100       0  01:35     599.83
  CC-storage               3.280      21     0     0         4.116      26       0  02:45     399.85
  XR-storage               0.920      99     0     0         0.926     100       0  00:55     190.00
  
  
  ***********************
  Outfall Loading Summary
  ***********************
  
  -----------------------------------------------------------
                         Flow       Avg       Max       Total
                         Freq      Flow      Flow      Volume
  Outfall Node           Pcnt       LPS       LPS    10^6 ltr
  -----------------------------------------------------------
  WSC                  100.00    478.38    998.97      10.285
  3                     60.35    183.43    552.19       1.844
  4                     30.70    113.03    281.21       0.571
  5                      0.00      0.00      0.00       0.000
  -----------------------------------------------------------
  System                47.76    774.83   1587.84      12.700
  
  
  ********************
  Link Flow Summary
  ********************
  
  -----------------------------------------------------------------------------
                                 Maximum  Time of Max   Maximum    Max/    Max/
                                  |Flow|   Occurrence   |Veloc|    Full    Full
  Link                 Type          LPS  days hr:min     m/sec    Flow   Depth
  -----------------------------------------------------------------------------
  WS02003066WSF200     CONDUIT    868.88     0  01:39      3.24    0.15    0.30
  WS02006287WS02006284 CONDUIT    820.97     0  01:36      2.53    0.38    0.43
  WS02006284WS02006280 CONDUIT    821.14     0  01:36      2.76    0.34    0.40
  WS02006280WS02006229 CONDUIT    821.22     0  01:36      4.41    0.18    0.34
  WS02006229WS02006228 CONDUIT    853.44     0  01:33      1.70    2.83    1.00
  WS02006256WS02006235 CONDUIT    149.94     0  00:55      2.14    1.59    1.00
  WS02006253WS02006251 CONDUIT    190.79     0  01:33      0.69    0.57    1.00
  WS02006252WS02006251 CONDUIT    400.00     0  02:20      3.18    1.47    1.00
  WS02006251WS02006249 CONDUIT    478.00     0  02:20      1.26    1.38    0.98
  WS02006249WS02006248 CONDUIT    342.81     0  01:31      1.17    1.88    0.96
  WS02006248WS02006247 CONDUIT    334.11     0  01:31      1.14    0.73    1.00
  WS02006247WS02006245 CONDUIT    316.17     0  01:31      1.11    2.51    1.00
  WS02006245WS02006243 CONDUIT    295.96     0  01:31      1.19    0.88    1.00
  WS02006243WS02006242 CONDUIT    267.27     0  02:20      1.00    0.57    1.00
  WS02006242WS02006240 CONDUIT    267.14     0  02:20      0.79    1.06    1.00
  WS02006240WS02006239 CONDUIT    267.09     0  02:20      0.88    0.84    1.00
  WS02006239WS02006238 CONDUIT    267.04     0  02:20      0.76    0.85    1.00
  WS02006238WS02006235 CONDUIT    267.00     0  02:20      0.75    0.60    1.00
  WS02006235WS02006234 CONDUIT    332.71     0  03:29      0.97    3.51    1.00
  WS02006234WS02006232 CONDUIT    333.76     0  03:29      0.87    0.68    1.00
  WS02006232WS02006231 CONDUIT    334.00     0  03:29      0.90    0.70    1.00
  WS02006231WS02006230 CONDUIT    335.91     0  03:28      1.25    5.10    1.00
  WS02006230WS02006229 CONDUIT    348.69     0  03:28      0.91    7.76    1.00
  WS02006228WS02006109 CONDUIT    853.43     0  01:33      1.70    3.73    1.00
  WS02006116WS02004401 CONDUIT    876.81     0  01:36      1.12    1.21    1.00
  WS02006115WS02006116 CONDUIT    877.03     0  01:37      1.12    1.13    1.00
  WS02006113WS02006111 CONDUIT    842.83     0  01:36      2.70    1.01    0.92
  WS02006112WS02006115 CONDUIT    877.68     0  01:36      1.12    0.52    1.00
  WS02006111WS02006112 CONDUIT    845.53     0  01:36      1.92    0.40    0.97
  WS02006110WS02006113 CONDUIT    854.59     0  01:33      1.86    0.78    0.95
  WS02006109WS02006110 CONDUIT    854.55     0  01:33      1.70    1.64    1.00
  WS02004411WS02004412 CONDUIT    868.53     0  01:39      1.19    1.23    0.87
  WS02004401WS02004402 CONDUIT    876.73     0  01:36      1.12    1.05    1.00
  WS02004413WS02003067 CONDUIT    868.54     0  01:39      1.46    0.37    0.71
  WS02004412WS02004413 CONDUIT    868.60     0  01:39      1.14    0.58    0.93
  WS02004410WS02004411 CONDUIT    868.51     0  01:38      1.18    1.19    0.89
  WS02004409WS02004410 CONDUIT    869.81     0  01:38      1.23    1.12    0.90
  WS02004407WS02004409 CONDUIT    876.84     0  01:36      1.82    0.31    0.64
  WS02004406WS02004407 CONDUIT    877.85     0  01:36      1.52    0.39    0.69
  WS02004405WS02004406 CONDUIT    877.57     0  01:36      1.12    1.73    1.00
  WS02004404WS02004405 CONDUIT    878.52     0  01:36      1.12    8.61    1.00
  WS02004403WS02004404 CONDUIT    877.20     0  01:36      1.12    0.63    1.00
  WS02004402WS02004403 CONDUIT    876.75     0  01:36      1.12    1.26    1.00
  WS02004139WS02001211 CONDUIT    191.13     0  02:28      0.69    0.24    0.50
  WS02004138WS02004139 CONDUIT    192.69     0  00:00      2.95    0.04    0.35
  WS02003067WS02003066 CONDUIT    868.77     0  01:39      1.59    0.28    0.49
  WS02001213WS02003059 CONDUIT    201.07     0  02:26      0.65    0.33    0.74
  WS02001212WS02001213 CONDUIT    200.07     0  02:26      1.00    0.31    0.41
  WS02001211WS02001212 CONDUIT    199.32     0  02:27      0.52    0.15    0.55
  WS02003072WS02003073 CONDUIT    993.83     0  01:44      1.76    2.15    0.50
  WS02003069WS02003072 CONDUIT    991.11     0  01:43      1.65    0.48    0.52
  WS02003060WS02003069 CONDUIT    991.16     0  01:43      1.90    0.39    0.47
  WS02003059WS02003060 CONDUIT    201.68     0  02:25      0.63    0.13    0.66
  HS02004901HS02004770 CONDUIT     40.98     0  01:33      0.10    0.15    0.57
  HS02004876HS02004881 CONDUIT    157.88     0  01:36      1.33    1.68    0.17
  HS02004870HS02004876 CONDUIT    127.61     0  01:36      0.90    0.08    0.20
  HS02004842HS02004848 CONDUIT     18.52     0  01:52      0.08    0.01    0.35
  HS02004837HS02004842 CONDUIT     18.98     0  01:52      0.42    0.01    0.36
  HS02004830HS02004837 CONDUIT     74.30     0  01:37      0.68    0.07    0.16
  HS02004824HS02004830 CONDUIT     75.05     0  01:38      0.62    0.10    0.21
  HS02004817HS02004824 CONDUIT    150.06     0  01:41      0.35    0.07    0.62
  HS02004770HS02004777 CONDUIT    211.14     0  01:32      0.52    0.39    0.58
  HS02004799HS02004480 CONDUIT    525.37     0  01:34      1.14    0.66    0.66
  HS02004792HS02004799 CONDUIT    478.54     0  01:33      1.27    0.29    0.54
  HS02004788HS02004792 CONDUIT    277.00     0  01:34      1.34    0.18    0.30
  HS02004785HS02004788 CONDUIT    210.88     0  01:34      0.96    1.59    0.31
  HS02004777HS02004785 CONDUIT    210.80     0  01:33      0.62    0.26    0.49
  HS02004480HS02004478 CONDUIT    623.55     0  01:34      1.66    2.63    0.54
  HS02004479HS02004480 CONDUIT     98.64     0  01:35      0.34    0.10    0.63
  HS02004862HS02004870 CONDUIT     96.84     0  01:37      0.86    0.10    0.16
  HS02004848HS02004852 CONDUIT     45.40     0  01:37      0.56    0.05    0.12
  HS02004856HS02004862 CONDUIT     68.36     0  01:37      0.64    0.07    0.15
  HS02004852HS02004856 CONDUIT     45.48     0  01:38      0.37    0.05    0.18
  HS02004802HS02004478 CONDUIT    205.92     0  01:39      0.56    0.18    0.54
  HS02004478WS02006287 CONDUIT    821.00     0  01:36      2.26    0.23    0.40
  HS02004817HS02004807 CONDUIT    151.16     0  01:41      0.28    0.09    0.79
  HS02004807HS02004802 CONDUIT    204.83     0  01:39      0.50    0.39    0.59
  YS02001759YS02001757 CONDUIT    890.02     0  01:47      1.13    0.63    1.00
  YS02001762YS02001759 CONDUIT    383.74     0  01:43      0.49    0.44    1.00
  YS02001765YS02001762 CONDUIT    383.80     0  01:43      0.49    0.36    1.00
  YS02001770YS02001767 CONDUIT    383.18     0  01:43      0.49    1.52    1.00
  YS02001774YS02001770 CONDUIT    851.87     0  02:47      1.08    0.54    1.00
  YS02001779YS02001774 CONDUIT    851.62     0  02:47      1.08    0.43    1.00
  YS02001649YS02001757 CONDUIT    903.03     0  01:46      1.15    0.55    1.00
  YS02001767YS02001765 CONDUIT    383.53     0  01:43      0.49    0.48    1.00
  YS02006561YS02001783 CONDUIT   1009.74     0  01:35      2.26    0.52    1.00
  YS02001783YS02001784 CONDUIT   1009.58     0  01:35      2.01    1.39    1.00
  YS02001784YS02001785 CONDUIT   1010.38     0  01:35      2.05    2.35    1.00
  YS02001788YS02001790 CONDUIT    974.02     0  03:01      2.45    0.72    1.00
  YS02001790YS02001791 CONDUIT    974.18     0  03:01      3.00    1.06    1.00
  YS02001791YS02001793 CONDUIT    974.22     0  02:56      5.87    0.42    1.00
  YS02001910YS02001907 CONDUIT    868.34     0  03:01      1.11    0.49    1.00
  YS02001786YS02001788 CONDUIT    978.85     0  01:35      2.32    1.89    1.00
  YS02001915YS02001910 CONDUIT    868.24     0  03:01      1.11    0.43    1.00
  YS02001918YS02001915 CONDUIT    389.88     0  01:38      0.54    0.22    1.00
  YS02001923YS02001920 CONDUIT    386.71     0  01:38      0.88    0.17    1.00
  YS02001926YS02001923 CONDUIT    332.96     0  03:02      0.95    0.48    1.00
  YS02001929YS02001926 CONDUIT    330.28     0  03:01      1.03    0.16    1.00
  YS02001920YS02001918 CONDUIT    389.63     0  01:38      0.84    0.38    1.00
  YS02001629YS02163301 CONDUIT    298.38     0  01:30      0.38    0.37    1.00
  YS02001619YS02001622 CONDUIT    541.63     0  03:01      0.90    0.80    1.00
  YS02001622YS02001625 CONDUIT    541.79     0  03:01      0.69    0.29    1.00
  YS02001625YS02001629 CONDUIT    308.10     0  01:30      0.45    0.15    1.00
  YS02163301YS02001633 CONDUIT    307.59     0  01:30      0.39    0.29    1.00
  YS02163601YS02164001 CONDUIT    453.40     0  01:32      0.58    0.40    1.00
  YS02164001YS02001641 CONDUIT    453.10     0  01:32      0.58    0.62    1.00
  YS02001641YS02001644 CONDUIT    452.98     0  01:32      0.58    1.46    1.00
  YS02001647YS02001649 CONDUIT    846.70     0  02:56      1.08    0.45    1.00
  YS02006553YS02006556 CONDUIT    699.81     0  03:50      0.89    0.60    1.00
  YS02006556YS02006558 CONDUIT    699.91     0  03:50      0.89    0.55    1.00
  YSB6556YSB1171       CONDUIT     54.78     0  01:36      0.16    0.06    0.86
  YS02001907YS02006553 CONDUIT    699.75     0  03:50      0.78    0.82    1.00
  YS02006558YS02006561 CONDUIT   1037.00     0  01:35      3.74    2.29    1.00
  YS02001633YS02163601 CONDUIT    453.01     0  01:32      0.58    0.48    1.00
  YS02001644YS02001647 CONDUIT    846.70     0  02:56      1.08    0.50    1.00
  YS02001745YS02001748 CONDUIT    635.79     0  03:01      1.90    0.24    1.00
  YS02001748YS02001751 CONDUIT    636.01     0  03:01      1.44    0.32    1.00
  YS02001751YS02001754 CONDUIT    636.17     0  03:01      1.17    0.31    1.00
  YS02001754YS02001757 CONDUIT    636.50     0  03:01      0.81    0.26    1.00
  YS02001882YS02001884 CONDUIT     47.06     0  01:34      0.18    0.05    1.00
  YS02001884YS02001887 CONDUIT     57.46     0  01:32      0.14    0.08    1.00
  YS02001890YS02001895 CONDUIT    558.08     0  01:37      0.71    0.26    1.00
  YS02001895YS02001898 CONDUIT    558.45     0  01:37      0.71    0.97    1.00
  YS02001898YS02001901 CONDUIT    559.01     0  01:37      0.71    0.36    1.00
  YS02001901YS02001904 CONDUIT    558.98     0  01:37      0.71    0.87    1.00
  YS02001904YS02001907 CONDUIT    559.71     0  01:37      0.71    0.20    1.00
  YS02001887YS02001890 CONDUIT    787.86     0  03:01      1.00    1.35    1.00
  YS02001652YS02001649 CONDUIT    607.51     0  03:01      0.77    0.30    1.00
  YS02001655YS02001652 CONDUIT    607.47     0  03:01      1.26    0.29    1.00
  YS02001658YS02001655 CONDUIT    607.23     0  03:01      1.67    0.26    1.00
  YS02001661YS02001658 CONDUIT    607.12     0  03:01      2.02    0.24    1.00
  YS02001664YS02001661 CONDUIT    805.94     0  01:48      1.90    0.25    0.87
  YSB1154YSB6556       CONDUIT     54.37     0  01:35      0.17    0.10    0.79
  YSB1174YSB1171       CONDUIT     45.35     0  01:31      0.13    0.07    0.90
  YSB1171HS02004479    CONDUIT     98.35     0  01:34      0.54    0.07    0.73
  HS02004881HS02006253 CONDUIT    174.51     0  01:36      2.55    0.03    0.31
  YS02001793JiankangQianchi CONDUIT   1021.80     0  01:34      2.40    0.08    1.00
  YS02001757CaochengTiaoxuchi CONDUIT   2171.30     0  01:47      3.84    0.95    1.00
  WSF200WS02003060     CONDUIT    870.44     0  01:39      2.52    0.19    0.39
  1                    CONDUIT    998.97     0  01:45      3.33    0.35    0.41
  2                    CONDUIT    281.21     0  01:37      6.33    0.67    0.60
  3                    CONDUIT    552.19     0  02:10      9.96    0.88    0.73
  4                    CONDUIT      0.00     0  00:00      0.00    0.00    0.00
  CC-Pump-1            PUMP       200.00     0  02:10              1.00
  CC-Pump-2            PUMP       200.00     0  01:30              1.00
  JK-Pump-1            PUMP       300.00     0  03:10              1.00
  JK-Pump-2            PUMP       299.98     0  05:10              1.00
  XR-Pump-1            PUMP        95.00     0  00:00              1.00
  XR-Pump-2            PUMP        94.99     0  03:00              1.00
  XR-Pump-3            PUMP        94.93     0  02:20              1.00
  XR-Pump-4            PUMP        95.00     0  00:00              1.00
  
  
  ***************************
  Flow Classification Summary
  ***************************
  
  -------------------------------------------------------------------------------------
                      Adjusted    ---------- Fraction of Time in Flow Class ---------- 
                       /Actual         Up    Down  Sub   Sup   Up    Down  Norm  Inlet 
  Conduit               Length    Dry  Dry   Dry   Crit  Crit  Crit  Crit  Ltd   Ctrl  
  -------------------------------------------------------------------------------------
  WS02003066WSF200        1.00   0.08  0.00  0.00  0.00  0.92  0.00  0.00  0.55  0.00
  WS02006287WS02006284    1.00   0.02  0.03  0.00  0.41  0.54  0.00  0.00  0.61  0.00
  WS02006284WS02006280    1.00   0.05  0.00  0.00  0.00  0.00  0.00  0.95  0.00  0.00
  WS02006280WS02006229    1.00   0.05  0.00  0.00  0.00  0.07  0.00  0.88  0.01  0.00
  WS02006229WS02006228    1.00   0.00  0.00  0.00  1.00  0.00  0.00  0.00  0.00  0.00
  WS02006256WS02006235    1.00   0.02  0.00  0.00  0.98  0.00  0.00  0.00  0.00  0.00
  WS02006253WS02006251    1.00   0.01  0.01  0.00  0.95  0.00  0.02  0.00  0.00  0.00
  WS02006252WS02006251    1.00   0.07  0.00  0.00  0.00  0.00  0.93  0.00  0.00  0.00
  WS02006251WS02006249    1.00   0.00  0.00  0.00  1.00  0.00  0.00  0.00  0.40  0.00
  WS02006249WS02006248    1.00   0.00  0.00  0.00  0.79  0.00  0.20  0.00  0.00  0.00
  WS02006248WS02006247    1.00   0.00  0.00  0.00  0.98  0.00  0.00  0.01  0.29  0.00
  WS02006247WS02006245    1.00   0.01  0.00  0.00  0.95  0.00  0.00  0.04  0.00  0.00
  WS02006245WS02006243    1.00   0.01  0.00  0.00  0.95  0.00  0.00  0.05  0.03  0.00
  WS02006243WS02006242    1.00   0.01  0.00  0.00  0.97  0.00  0.00  0.02  0.25  0.00
  WS02006242WS02006240    1.00   0.01  0.01  0.00  0.97  0.00  0.00  0.00  0.00  0.00
  WS02006240WS02006239    1.00   0.02  0.00  0.00  0.94  0.00  0.00  0.04  0.02  0.00
  WS02006239WS02006238    1.00   0.02  0.00  0.00  0.98  0.00  0.00  0.00  0.09  0.00
  WS02006238WS02006235    1.00   0.02  0.00  0.00  0.98  0.00  0.00  0.00  0.00  0.00
  WS02006235WS02006234    1.00   0.02  0.00  0.00  0.95  0.00  0.03  0.00  0.00  0.00
  WS02006234WS02006232    1.00   0.02  0.00  0.00  0.98  0.00  0.00  0.00  0.05  0.00
  WS02006232WS02006231    1.00   0.02  0.00  0.00  0.97  0.00  0.00  0.00  0.00  0.00
  WS02006231WS02006230    1.00   0.03  0.00  0.00  0.45  0.00  0.53  0.00  0.00  0.00
  WS02006230WS02006229    1.00   0.00  0.00  0.00  0.99  0.00  0.00  0.01  0.00  0.00
  WS02006228WS02006109    1.00   0.00  0.00  0.00  1.00  0.00  0.00  0.00  0.00  0.00
  WS02006116WS02004401    1.00   0.02  0.00  0.00  0.98  0.00  0.00  0.00  0.00  0.00
  WS02006115WS02006116    1.00   0.02  0.00  0.00  0.95  0.00  0.00  0.03  0.00  0.00
  WS02006113WS02006111    1.00   0.01  0.00  0.00  0.11  0.88  0.00  0.00  0.14  0.00
  WS02006112WS02006115    1.00   0.02  0.01  0.00  0.97  0.00  0.00  0.00  0.00  0.00
  WS02006111WS02006112    1.00   0.02  0.00  0.00  0.98  0.00  0.00  0.00  0.72  0.00
  WS02006110WS02006113    1.00   0.00  0.01  0.00  0.99  0.00  0.00  0.00  0.00  0.00
  WS02006109WS02006110    1.00   0.00  0.00  0.00  0.99  0.00  0.00  0.00  0.00  0.00
  WS02004411WS02004412    1.00   0.06  0.00  0.00  0.94  0.00  0.00  0.00  0.00  0.00
  WS02004401WS02004402    1.00   0.02  0.00  0.00  0.98  0.00  0.00  0.00  0.00  0.00
  WS02004413WS02003067    1.00   0.06  0.01  0.00  0.00  0.00  0.93  0.00  0.00  0.00
  WS02004412WS02004413    1.00   0.06  0.00  0.00  0.94  0.00  0.00  0.00  0.01  0.00
  WS02004410WS02004411    1.00   0.06  0.00  0.00  0.94  0.00  0.00  0.00  0.00  0.00
  WS02004409WS02004410    1.00   0.06  0.00  0.00  0.94  0.00  0.00  0.00  0.00  0.00
  WS02004407WS02004409    1.00   0.06  0.00  0.00  0.94  0.00  0.00  0.00  0.84  0.00
  WS02004406WS02004407    1.00   0.00  0.06  0.00  0.94  0.00  0.00  0.00  0.00  0.00
  WS02004405WS02004406    1.00   0.00  0.00  0.00  1.00  0.00  0.00  0.00  0.04  0.00
  WS02004404WS02004405    1.00   0.00  0.00  0.00  1.00  0.00  0.00  0.00  0.00  0.00
  WS02004403WS02004404    1.00   0.00  0.03  0.00  0.97  0.00  0.00  0.00  0.02  0.00
  WS02004402WS02004403    1.00   0.03  0.00  0.00  0.97  0.00  0.00  0.00  0.00  0.00
  WS02004139WS02001211    1.00   0.00  0.00  0.00  1.00  0.00  0.00  0.00  0.00  0.00
  WS02004138WS02004139    1.00   0.00  0.00  0.00  1.00  0.00  0.00  0.00  1.00  0.00
  WS02003067WS02003066    1.00   0.07  0.01  0.00  0.93  0.00  0.00  0.00  0.00  0.00
  WS02001213WS02003059    1.00   0.00  0.00  0.00  1.00  0.00  0.00  0.00  0.00  0.00
  WS02001212WS02001213    1.00   0.00  0.00  0.00  0.61  0.00  0.39  0.00  0.00  0.00
  WS02001211WS02001212    1.00   0.00  0.00  0.00  1.00  0.00  0.00  0.00  0.00  0.00
  WS02003072WS02003073    1.00   0.00  0.00  0.00  0.00  0.00  0.00  1.00  0.00  0.00
  WS02003069WS02003072    1.00   0.00  0.00  0.00  1.00  0.00  0.00  0.00  0.62  0.00
  WS02003060WS02003069    1.00   0.00  0.00  0.00  0.96  0.04  0.00  0.00  0.44  0.00
  WS02003059WS02003060    1.00   0.00  0.00  0.00  1.00  0.00  0.00  0.00  0.01  0.00
  HS02004901HS02004770    1.00   0.04  0.00  0.00  0.96  0.00  0.00  0.00  0.00  0.00
  HS02004876HS02004881    1.00   0.00  0.00  0.00  0.64  0.35  0.00  0.00  0.00  0.00
  HS02004870HS02004876    1.00   0.00  0.00  0.00  1.00  0.00  0.00  0.00  0.95  0.00
  HS02004842HS02004848    1.00   0.00  0.04  0.00  0.96  0.00  0.00  0.00  0.54  0.00
  HS02004837HS02004842    1.00   0.00  0.00  0.00  1.00  0.00  0.00  0.00  0.11  0.00
  HS02004830HS02004837    1.00   0.00  0.00  0.00  1.00  0.00  0.00  0.00  0.99  0.00
  HS02004824HS02004830    1.00   0.00  0.00  0.00  1.00  0.00  0.00  0.00  0.03  0.00
  HS02004817HS02004824    1.00   0.00  0.00  0.00  1.00  0.00  0.00  0.00  0.88  0.00
  HS02004770HS02004777    1.00   0.00  0.04  0.00  0.96  0.00  0.00  0.00  0.02  0.00
  HS02004799HS02004480    1.00   0.00  0.01  0.00  0.94  0.00  0.05  0.00  0.00  0.00
  HS02004792HS02004799    1.00   0.00  0.00  0.00  1.00  0.00  0.00  0.00  0.98  0.00
  HS02004788HS02004792    1.00   0.00  0.00  0.00  1.00  0.00  0.00  0.00  0.98  0.00
  HS02004785HS02004788    1.00   0.00  0.00  0.00  1.00  0.00  0.00  0.00  0.00  0.00
  HS02004777HS02004785    1.00   0.00  0.00  0.00  1.00  0.00  0.00  0.00  0.11  0.00
  HS02004480HS02004478    1.00   0.05  0.00  0.00  0.49  0.00  0.00  0.46  0.00  0.00
  HS02004479HS02004480    1.00   0.01  0.00  0.00  0.99  0.00  0.00  0.00  0.11  0.00
  HS02004862HS02004870    1.00   0.00  0.00  0.00  1.00  0.00  0.00  0.00  0.02  0.00
  HS02004848HS02004852    1.00   0.04  0.00  0.00  0.96  0.00  0.00  0.00  0.82  0.00
  HS02004856HS02004862    1.00   0.00  0.06  0.00  0.94  0.00  0.00  0.00  0.84  0.00
  HS02004852HS02004856    1.00   0.04  0.01  0.00  0.95  0.00  0.00  0.00  0.70  0.00
  HS02004802HS02004478    1.00   0.05  0.01  0.00  0.95  0.00  0.00  0.00  0.02  0.00
  HS02004478WS02006287    1.00   0.06  0.00  0.00  0.54  0.40  0.00  0.00  0.58  0.00
  HS02004817HS02004807    1.00   0.00  0.04  0.00  0.96  0.00  0.00  0.00  0.01  0.00
  HS02004807HS02004802    1.00   0.04  0.00  0.00  0.95  0.00  0.00  0.01  0.00  0.00
  YS02001759YS02001757    1.00   0.00  0.00  0.00  1.00  0.00  0.00  0.00  0.15  0.00
  YS02001762YS02001759    1.00   0.00  0.00  0.00  1.00  0.00  0.00  0.00  0.02  0.00
  YS02001765YS02001762    1.00   0.00  0.00  0.00  1.00  0.00  0.00  0.00  0.13  0.00
  YS02001770YS02001767    1.00   0.00  0.00  0.00  1.00  0.00  0.00  0.00  0.00  0.00
  YS02001774YS02001770    1.00   0.00  0.05  0.00  0.95  0.00  0.00  0.00  0.02  0.00
  YS02001779YS02001774    1.00   0.00  0.00  0.00  1.00  0.00  0.00  0.00  0.16  0.00
  YS02001649YS02001757    1.00   0.00  0.00  0.00  1.00  0.00  0.00  0.00  0.15  0.00
  YS02001767YS02001765    1.00   0.00  0.00  0.00  1.00  0.00  0.00  0.00  0.00  0.00
  YS02006561YS02001783    1.00   0.06  0.00  0.00  0.89  0.05  0.00  0.00  0.43  0.00
  YS02001783YS02001784    1.00   0.00  0.06  0.00  0.94  0.00  0.00  0.00  0.00  0.00
  YS02001784YS02001785    1.00   0.00  0.00  0.00  1.00  0.00  0.00  0.00  0.16  0.00
  YS02001788YS02001790    1.00   0.00  0.00  0.00  0.96  0.04  0.00  0.00  0.17  0.00
  YS02001790YS02001791    1.00   0.00  0.00  0.00  0.90  0.10  0.00  0.00  0.01  0.00
  YS02001791YS02001793    1.00   0.00  0.00  0.00  0.90  0.10  0.00  0.00  0.00  0.00
  YS02001910YS02001907    1.00   0.00  0.00  0.00  0.99  0.00  0.00  0.01  0.12  0.00
  YS02001786YS02001788    1.00   0.00  0.00  0.00  0.97  0.03  0.00  0.00  0.00  0.00
  YS02001915YS02001910    1.00   0.00  0.00  0.00  0.99  0.01  0.00  0.00  0.13  0.00
  YS02001918YS02001915    1.00   0.00  0.00  0.00  1.00  0.00  0.00  0.00  0.45  0.00
  YS02001923YS02001920    1.00   0.00  0.00  0.00  1.00  0.00  0.00  0.00  0.64  0.00
  YS02001926YS02001923    1.00   0.00  0.02  0.00  0.50  0.00  0.48  0.00  0.00  0.00
  YS02001929YS02001926    1.00   0.00  0.04  0.00  0.96  0.00  0.00  0.00  0.56  0.00
  YS02001920YS02001918    1.00   0.00  0.00  0.00  1.00  0.00  0.00  0.00  0.00  0.00
  YS02001629YS02163301    1.00   0.05  0.00  0.00  0.94  0.00  0.00  0.00  0.00  0.00
  YS02001619YS02001622    1.00   0.04  0.00  0.00  0.96  0.00  0.00  0.00  0.00  0.00
  YS02001622YS02001625    1.00   0.04  0.00  0.00  0.96  0.00  0.00  0.00  0.03  0.00
  YS02001625YS02001629    1.00   0.05  0.02  0.00  0.93  0.00  0.01  0.00  0.00  0.00
  YS02163301YS02001633    1.00   0.00  0.05  0.00  0.95  0.00  0.00  0.00  0.00  0.00
  YS02163601YS02164001    1.00   0.00  0.02  0.00  0.98  0.00  0.00  0.00  0.00  0.00
  YS02164001YS02001641    1.00   0.00  0.02  0.00  0.98  0.00  0.00  0.00  0.06  0.00
  YS02001641YS02001644    1.00   0.00  0.00  0.00  1.00  0.00  0.00  0.00  0.00  0.00
  YS02001647YS02001649    1.00   0.00  0.06  0.00  0.94  0.00  0.00  0.00  0.01  0.00
  YS02006553YS02006556    1.00   0.00  0.00  0.00  1.00  0.00  0.00  0.00  0.03  0.00
  YS02006556YS02006558    1.00   0.00  0.00  0.00  1.00  0.00  0.00  0.00  0.00  0.00
  YSB6556YSB1171          1.00   0.01  0.03  0.00  0.96  0.00  0.00  0.00  0.00  0.00
  YS02001907YS02006553    1.00   0.00  0.00  0.00  0.99  0.00  0.00  0.00  0.00  0.00
  YS02006558YS02006561    1.00   0.06  0.00  0.00  0.54  0.40  0.00  0.00  0.35  0.00
  YS02001633YS02163601    1.00   0.00  0.00  0.00  1.00  0.00  0.00  0.00  0.15  0.00
  YS02001644YS02001647    1.00   0.00  0.06  0.00  0.94  0.00  0.00  0.00  0.00  0.00
  YS02001745YS02001748    1.00   0.00  0.00  0.00  0.92  0.00  0.00  0.08  0.00  0.00
  YS02001748YS02001751    1.00   0.00  0.00  0.00  0.98  0.02  0.00  0.00  0.13  0.00
  YS02001751YS02001754    1.00   0.00  0.00  0.00  0.94  0.00  0.00  0.06  0.01  0.00
  YS02001754YS02001757    1.00   0.00  0.00  0.00  1.00  0.00  0.00  0.00  0.16  0.00
  YS02001882YS02001884    1.00   0.05  0.00  0.00  0.94  0.00  0.00  0.00  0.00  0.00
  YS02001884YS02001887    1.00   0.01  0.01  0.00  0.97  0.00  0.00  0.00  0.00  0.00
  YS02001890YS02001895    1.00   0.00  0.06  0.00  0.94  0.00  0.00  0.00  0.00  0.00
  YS02001895YS02001898    1.00   0.06  0.00  0.00  0.94  0.00  0.01  0.00  0.00  0.00
  YS02001898YS02001901    1.00   0.06  0.00  0.00  0.94  0.00  0.00  0.00  0.00  0.00
  YS02001901YS02001904    1.00   0.06  0.00  0.00  0.94  0.00  0.00  0.00  0.00  0.00
  YS02001904YS02001907    1.00   0.00  0.06  0.00  0.94  0.00  0.00  0.00  0.00  0.00
  YS02001887YS02001890    1.00   0.00  0.00  0.00  0.99  0.00  0.01  0.00  0.00  0.00
  YS02001652YS02001649    1.00   0.00  0.00  0.00  1.00  0.00  0.00  0.00  0.15  0.00
  YS02001655YS02001652    1.00   0.00  0.00  0.00  0.94  0.00  0.00  0.06  0.01  0.00
  YS02001658YS02001655    1.00   0.00  0.05  0.00  0.93  0.02  0.00  0.00  0.01  0.00
  YS02001661YS02001658    1.00   0.05  0.00  0.00  0.92  0.03  0.00  0.00  0.00  0.00
  YS02001664YS02001661    1.00   0.04  0.00  0.00  0.93  0.03  0.00  0.00  0.07  0.00
  YSB1154YSB6556          1.00   0.04  0.00  0.00  0.96  0.00  0.00  0.00  0.01  0.00
  YSB1174YSB1171          1.00   0.01  0.01  0.00  0.98  0.00  0.00  0.00  0.00  0.00
  YSB1171HS02004479       1.00   0.01  0.00  0.00  0.99  0.00  0.00  0.00  0.10  0.00
  HS02004881HS02006253    1.00   0.01  0.00  0.00  0.51  0.06  0.00  0.41  0.36  0.00
  YS02001793JiankangQianchi    1.00   0.00  0.00  0.00  1.00  0.00  0.00  0.00  0.20  0.00
  YS02001757CaochengTiaoxuchi    1.00   0.00  0.07  0.00  0.87  0.06  0.00  0.00  0.00  0.00
  WSF200WS02003060        1.00   0.00  0.08  0.00  0.14  0.78  0.00  0.00  0.27  0.00
  1                       1.00   0.00  0.00  0.00  0.00  1.00  0.00  0.00  0.40  0.00
  2                       1.00   0.69  0.00  0.00  0.00  0.31  0.00  0.00  0.07  0.00
  3                       1.00   0.40  0.00  0.00  0.00  0.60  0.00  0.00  0.09  0.00
  4                       1.00   1.00  0.00  0.00  0.00  0.00  0.00  0.00  0.00  0.00
  
  
  *************************
  Conduit Surcharge Summary
  *************************
  
  ----------------------------------------------------------------------------
                                                           Hours        Hours 
                         --------- Hours Full --------   Above Full   Capacity
  Conduit                Both Ends  Upstream  Dnstream   Normal Flow   Limited
  ----------------------------------------------------------------------------
  WS02006229WS02006228        2.18      2.19      2.18      2.44         2.18
  WS02006256WS02006235        4.92      4.92      6.32      1.54         0.05
  WS02006253WS02006251        0.01      0.01      0.25      0.01         0.01
  WS02006252WS02006251        0.09      0.09      0.25      0.21         0.01
  WS02006251WS02006249        0.01      0.02      0.01      0.54         0.01
  WS02006249WS02006248        0.01      0.01      0.01      1.58         0.01
  WS02006248WS02006247        0.01      0.01      0.34      0.01         0.01
  WS02006247WS02006245        0.35      0.48      0.35      2.74         0.19
  WS02006245WS02006243        0.48      0.48      0.83      0.01         0.01
  WS02006243WS02006242        0.88      0.88      1.42      0.01         0.01
  WS02006242WS02006240        1.32      1.32      1.52      0.09         0.01
  WS02006240WS02006239        1.36      1.36      1.44      0.01         0.01
  WS02006239WS02006238        1.58      1.58      1.67      0.01         0.01
  WS02006238WS02006235        1.66      1.66      1.76      0.01         0.02
  WS02006235WS02006234        1.52      1.52      1.62      4.28         0.14
  WS02006234WS02006232        1.60      1.60      2.07      0.01         0.01
  WS02006232WS02006231        1.49      1.49      2.07      0.01         0.01
  WS02006231WS02006230        1.45      1.45      1.53      4.93         0.12
  WS02006230WS02006229        2.23      2.24      2.23      5.43         2.03
  WS02006228WS02006109        2.18      2.21      2.18      3.31         2.18
  WS02006116WS02004401        0.83      0.83      0.85      0.68         0.66
  WS02006115WS02006116        0.47      0.47      0.48      0.41         0.40
  WS02006113WS02006111        0.01      0.01      0.01      0.07         0.01
  WS02006112WS02006115        0.44      0.44      1.97      0.01         0.01
  WS02006111WS02006112        0.01      0.01      2.41      0.01         0.01
  WS02006110WS02006113        0.01      0.01      2.20      0.01         0.01
  WS02006109WS02006110        1.87      1.87      2.21      1.87         0.01
  WS02004411WS02004412        0.01      0.01      0.01      0.72         0.01
  WS02004401WS02004402        0.85      0.85      1.03      0.24         0.24
  WS02004410WS02004411        0.01      0.01      0.01      0.65         0.01
  WS02004409WS02004410        0.01      0.01      0.01      0.41         0.01
  WS02004406WS02004407        0.01      0.01      1.50      0.01         0.01
  WS02004405WS02004406        1.50      1.64      1.50      1.92         1.50
  WS02004404WS02004405        1.64      1.74      1.64      5.07         1.64
  WS02004403WS02004404        1.12      1.12      1.74      0.01         0.01
  WS02004402WS02004403        1.03      1.03      1.12      0.80         0.79
  WS02003072WS02003073        0.01      0.01      0.01      2.13         0.01
  HS02004876HS02004881        0.01      0.01      0.01      0.86         0.01
  HS02004817HS02004824        0.01      0.01      0.32      0.01         0.01
  HS02004785HS02004788        0.01      0.01      0.01      0.81         0.01
  HS02004480HS02004478        0.01      0.01      0.01      1.81         0.01
  HS02004817HS02004807        0.01      0.01      0.32      0.01         0.01
  YS02001759YS02001757        6.35      6.35      6.36      0.01         0.01
  YS02001762YS02001759        6.34      6.34      6.35      0.01         0.01
  YS02001765YS02001762        6.34      6.34      6.34      0.01         0.01
  YS02001770YS02001767        6.33      6.33      6.33      1.31         0.50
  YS02001774YS02001770        6.33      6.33      6.34      0.01         0.01
  YS02001779YS02001774        6.31      6.31      6.34      0.01         0.01
  YS02001649YS02001757        6.34      6.34      6.36      0.01         0.01
  YS02001767YS02001765        6.33      6.33      6.34      0.01         0.01
  YS02006561YS02001783        2.45      2.45      2.93      0.01         0.01
  YS02001783YS02001784        2.92      2.93      2.98      2.81         2.74
  YS02001784YS02001785        2.91      2.98      2.91      3.51         2.90
  YS02001788YS02001790        2.89      2.89      6.09      0.01         0.01
  YS02001790YS02001791        6.09      6.09      6.24      2.31         2.30
  YS02001791YS02001793        6.24      6.24      6.26      0.01         0.01
  YS02001910YS02001907        2.74      2.74      3.05      0.01         0.01
  YS02001786YS02001788        2.89      2.91      2.89      3.18         2.89
  YS02001915YS02001910        2.56      2.56      2.74      0.01         0.01
  YS02001918YS02001915        2.34      2.34      2.56      0.01         0.01
  YS02001923YS02001920        2.16      2.16      2.38      0.01         0.01
  YS02001926YS02001923        0.01      0.01      0.01      0.01         0.01
  YS02001929YS02001926        0.01      0.01      0.01      0.01         0.01
  YS02001920YS02001918        2.34      2.34      2.38      0.01         0.01
  YS02001629YS02163301        6.33      6.33      6.33      0.01         0.01
  YS02001619YS02001622        6.31      6.31      6.31      0.01         0.03
  YS02001622YS02001625        6.31      6.31      6.32      0.01         0.01
  YS02001625YS02001629        6.31      6.31      6.32      0.01         0.01
  YS02163301YS02001633        6.33      6.33      6.33      0.01         0.01
  YS02163601YS02164001        6.33      6.33      6.34      0.01         0.01
  YS02164001YS02001641        6.33      6.33      6.34      0.01         0.02
  YS02001641YS02001644        6.34      6.34      6.34      3.05         3.10
  YS02001647YS02001649        6.32      6.32      6.34      0.01         0.01
  YS02006553YS02006556        2.90      2.90      3.10      0.01         0.01
  YS02006556YS02006558        2.96      2.96      3.15      0.01         0.01
  YSB6556YSB1171              0.01      0.01      0.43      0.01         0.01
  YS02001907YS02006553        3.54      3.54      3.73      0.01         0.01
  YS02006558YS02006561        2.61      2.88      2.61      3.40         2.61
  YS02001633YS02163601        6.33      6.33      6.34      0.01         0.01
  YS02001644YS02001647        6.32      6.32      6.34      0.01         0.01
  YS02001745YS02001748        0.57      0.57      6.28      0.01         0.01
  YS02001748YS02001751        6.29      6.29      6.30      0.01         0.01
  YS02001751YS02001754        6.30      6.30      6.31      0.01         0.01
  YS02001754YS02001757        6.31      6.31      6.36      0.01         0.01
  YS02001882YS02001884        2.57      2.57      2.60      0.01         0.01
  YS02001884YS02001887        2.65      2.65      2.68      0.01         0.01
  YS02001890YS02001895        2.54      2.54      2.76      0.01         0.01
  YS02001895YS02001898        2.53      2.53      2.54      0.01         0.01
  YS02001898YS02001901        2.55      2.55      2.64      0.01         0.01
  YS02001901YS02001904        2.62      2.62      2.64      0.01         0.01
  YS02001904YS02001907        2.62      2.62      3.13      0.01         0.01
  YS02001887YS02001890        2.70      2.70      2.73      1.55         0.01
  YS02001652YS02001649        6.32      6.32      6.34      0.01         0.01
  YS02001655YS02001652        6.30      6.30      6.31      0.01         0.01
  YS02001658YS02001655        6.29      6.29      6.30      0.01         0.01
  YS02001661YS02001658        1.11      1.11      6.29      0.01         0.01
  YS02001664YS02001661        0.01      0.01      2.30      0.01         0.01
  YSB1174YSB1171              0.01      0.01      0.16      0.01         0.01
  YS02001793JiankangQianchi        6.25      6.25      7.38      0.01         0.01
  YS02001757CaochengTiaoxuchi        5.87      5.87      6.36      0.01         0.01
  
  
  ***************
  Pumping Summary
  ***************
  
  ---------------------------------------------------------------------------------------------------------
                                                  Min       Avg       Max     Total     Power    % Time Off
                        Percent   Number of      Flow      Flow      Flow    Volume     Usage    Pump Curve
  Pump                 Utilized   Start-Ups       LPS       LPS       LPS  10^6 ltr     Kw-hr    Low   High
  ---------------------------------------------------------------------------------------------------------
  CC-Pump-1               17.03           3      0.00    131.22    200.00     0.600      0.40    0.0    0.0
  CC-Pump-2               41.42           6      0.00    138.51    200.00     1.536      1.74    0.0    7.7
  JK-Pump-1               36.16           7      0.00    196.34    300.00     1.800      9.15    0.0    0.0
  JK-Pump-2               21.27           3      0.00    157.99    299.98     0.900      3.53    0.0    0.0
  XR-Pump-1               63.83           9      0.00     60.18     95.00     1.112      5.93    0.0    0.0
  XR-Pump-2               12.76           3      0.00     42.42     94.99     0.171      1.09    0.0    0.0
  XR-Pump-3                4.26           1      0.00     44.68     94.93     0.057      0.26    0.0    0.0
  XR-Pump-4               44.67           8      0.00     58.33     95.00     0.713      4.12    0.0    0.0
  

  Analysis begun on:  Thu Jan  6 19:32:36 2022
  Analysis ended on:  Thu Jan  6 19:32:38 2022
  Total elapsed time: 00:00:02