
  EPA STORM WATER MANAGEMENT MODEL - VERSION 5.1 (Build 5.3.0.dev0)
  --------------------------------------------------------------

  WARNING 04: minimum elevation drop used for Conduit WS02004404WS02004405
  WARNING 03: negative offset ignored for Link YS02001904YS02001907
  
  *********************************************************
  NOTE: The summary statistics displayed in this report are
  based on results found at every computational time step,  
  not just on results from each reporting time step.
  *********************************************************
  
  ****************
  Analysis Options
  ****************
  Flow Units ............... LPS
  Process Models:
    Rainfall/Runoff ........ YES
    RDII ................... NO
    Snowmelt ............... NO
    Groundwater ............ NO
    Flow Routing ........... YES
    Ponding Allowed ........ NO
    Water Quality .......... NO
  Infiltration Method ...... HORTON
  Flow Routing Method ...... DYNWAVE
  Surcharge Method ......... EXTRAN
  Starting Date ............ 08/28/2015 08:00:00
  Ending Date .............. 08/28/2015 15:50:00
  Antecedent Dry Days ...... 8.0
  Report Time Step ......... 00:01:00
  Wet Time Step ............ 00:01:00
  Dry Time Step ............ 00:01:00
  Routing Time Step ........ 5.00 sec
  Variable Time Step ....... YES
  Maximum Trials ........... 8
  Number of Threads ........ 4
  Head Tolerance ........... 0.001500 m
  
  
  **************************        Volume         Depth
  Runoff Quantity Continuity     hectare-m            mm
  **************************     ---------       -------
  Total Precipitation ......         7.641        16.729
  Evaporation Loss .........         0.000         0.000
  Infiltration Loss ........         1.880         4.117
  Surface Runoff ...........         4.668        10.221
  Final Storage ............         1.093         2.393
  Continuity Error (%) .....        -0.013
  
  
  **************************        Volume        Volume
  Flow Routing Continuity        hectare-m      10^6 ltr
  **************************     ---------     ---------
  Dry Weather Inflow .......         0.616         6.165
  Wet Weather Inflow .......         4.667        46.670
  Groundwater Inflow .......         0.000         0.000
  RDII Inflow ..............         0.000         0.000
  External Inflow ..........         0.102         1.024
  External Outflow .........         1.039        10.391
  Flooding Loss ............         3.758        37.583
  Evaporation Loss .........         0.000         0.000
  Exfiltration Loss ........         0.000         0.000
  Initial Stored Volume ....         0.076         0.761
  Final Stored Volume ......         0.666         6.660
  Continuity Error (%) .....        -0.027
  
  
  *************************
  Highest Continuity Errors
  *************************
  Node HS02004842 (12.71%)
  Node YS02001884 (9.19%)
  Node HS02004817 (2.32%)
  Node YSB1171 (2.18%)
  Node YS02163301 (1.65%)
  
  
  ***************************
  Time-Step Critical Elements
  ***************************
  Link WS02006252WS02006251 (57.44%)
  Link 3 (27.47%)
  Link WS02006280WS02006229 (5.87%)
  Link WS02006238WS02006235 (1.76%)
  Link 2 (1.43%)
  
  
  ********************************
  Highest Flow Instability Indexes
  ********************************
  Link WS02006113WS02006111 (48)
  Link YS02163601YS02164001 (36)
  Link YS02001619YS02001622 (35)
  Link YS02001629YS02163301 (35)
  Link YS02163301YS02001633 (35)
  
  
  *************************
  Routing Time Step Summary
  *************************
  Minimum Time Step           :     0.50 sec
  Average Time Step           :     1.00 sec
  Maximum Time Step           :     5.00 sec
  Percent in Steady State     :    -0.00
  Average Iterations per Step :     4.09
  Percent Not Converging      :    14.72
  
  
  ***************************
  Subcatchment Runoff Summary
  ***************************
  
  ------------------------------------------------------------------------------------------------------------------------------
                            Total      Total      Total      Total     Imperv       Perv      Total       Total     Peak  Runoff
                           Precip      Runon       Evap      Infil     Runoff     Runoff     Runoff      Runoff   Runoff   Coeff
  Subcatchment                 mm         mm         mm         mm         mm         mm         mm    10^6 ltr      LPS
  ------------------------------------------------------------------------------------------------------------------------------
  sub0                      16.73       0.00       0.00       0.97      14.29       0.20      14.50        0.01     3.66   0.867
  sub1                      16.73       0.00       0.00       1.58      13.63       0.26      13.89        0.09    24.51   0.830
  sub2                      16.73       0.00       0.00       5.80       9.63       0.39      10.02        0.09    22.91   0.599
  sub3                      16.73       0.00       0.00       5.88       9.59       0.31       9.90        0.22    50.49   0.592
  sub4                      16.73       0.00       0.00       1.65      13.47       0.19      13.66        0.28    60.01   0.817
  sub5                      16.73       0.00       0.00       0.99      14.24       0.18      14.42        0.16    43.61   0.862
  sub7                      16.73       0.00       0.00       1.26      13.97       0.24      14.21        0.05    13.82   0.849
  sub8                      16.73       0.00       0.00       1.27      13.96       0.23      14.19        0.09    25.44   0.848
  sub9                      16.73       0.00       0.00       1.27      13.96       0.23      14.19        0.07    19.02   0.848
  sub10                     16.73       0.00       0.00       1.13      14.10       0.21      14.30        0.16    42.73   0.855
  sub11                     16.73       0.00       0.00       1.12      14.11       0.21      14.33        0.17    47.25   0.857
  sub12                     16.73       0.00       0.00       1.83      13.37       0.35      13.71        0.12    35.87   0.820
  sub14                     16.73       0.00       0.00       1.27      13.95       0.23      14.19        0.14    37.43   0.848
  sub15                     16.73       0.00       0.00       4.53      10.73       0.49      11.22        0.19    51.47   0.671
  sub16                     16.73       0.00       0.00       4.88      10.29       0.64      10.93        0.11    32.57   0.653
  sub17                     16.73       0.00       0.00       4.74      10.44       0.61      11.05        0.09    26.81   0.661
  sub22                     16.73       0.00       0.00       6.60       8.75       0.59       9.34        0.59   160.16   0.558
  sub23                     16.73       0.00       0.00       5.59       9.67       0.60      10.27        0.49   134.74   0.614
  sub60                     16.73       0.00       0.00       1.94      11.65       0.06      11.71        3.55   386.89   0.700
  sub61                     16.73       0.00       0.00       2.75      11.65       0.09      11.73        3.62   476.87   0.701
  sub62                     16.73       0.00       0.00       1.26      12.72       0.07      12.79        3.93   491.27   0.765
  sub63                     16.73       0.00       0.00       4.75      10.14       0.10      10.23        3.10   437.54   0.612
  sub64                     16.73       0.00       0.00       2.45      11.19       0.06      11.26        3.42   367.58   0.673
  sub65                     16.73       0.00       0.00       2.11      11.40       0.06      11.46        3.52   372.98   0.685
  sub66                     16.73       0.00       0.00       4.79       9.55       0.06       9.61        2.95   336.52   0.575
  sub67                     16.73       0.00       0.00       1.24      13.25       0.09      13.35        4.12   605.48   0.798
  sub68                     16.73       0.00       0.00       2.25      12.20       0.10      12.30        3.78   521.64   0.735
  sub69                     16.73       0.00       0.00       2.37      12.50       0.14      12.64        2.95   482.20   0.755
  sub70                     16.73      12.90       0.00       8.98      17.16       1.09      18.25        4.18   460.88   0.616
  sub71                     16.73       0.00       0.00       1.27      12.46       0.07      12.53        2.96   345.19   0.749
  sub72                     16.73       0.00       0.00       1.14      10.39       0.03      10.43        2.12   185.81   0.623
  sub73                     16.73      17.77       0.00       9.78      19.72       1.38      21.10        4.96   482.28   0.612
  sub74                     16.73       0.00       0.00      12.48       3.71       0.07       3.78        1.51   261.10   0.226
  
  
  ******************
  Node Depth Summary
  ******************
  
  ---------------------------------------------------------------------------------
                                 Average  Maximum  Maximum  Time of Max    Reported
                                   Depth    Depth      HGL   Occurrence   Max Depth
  Node                 Type       Meters   Meters   Meters  days hr:min      Meters
  ---------------------------------------------------------------------------------
  WS02001211           JUNCTION     0.48     0.66     5.50     0  02:21        0.66
  WS02001212           JUNCTION     0.24     0.41     5.47     0  02:21        0.41
  WS02001213           JUNCTION     0.48     0.69     5.45     0  02:22        0.69
  WS02003069           JUNCTION     0.33     0.57     5.15     0  02:03        0.57
  WS02003072           JUNCTION     0.40     0.63     5.00     0  02:03        0.63
  WS02003073           JUNCTION     0.23     0.38     4.45     0  02:04        0.38
  WS02003060           JUNCTION     0.30     0.50     5.43     0  02:02        0.50
  WS02003066           JUNCTION     0.21     0.35     5.91     0  01:58        0.35
  WS02003059           JUNCTION     0.55     0.75     5.44     0  02:22        0.75
  WS02003067           JUNCTION     0.53     0.78     6.10     0  01:58        0.78
  WS02004401           JUNCTION     0.63     1.11     7.11     0  01:53        1.10
  WS02004402           JUNCTION     0.66     1.12     7.08     0  01:53        1.10
  WS02004403           JUNCTION     0.68     1.11     7.04     0  01:53        1.09
  WS02004404           JUNCTION     0.76     1.16     7.01     0  01:53        1.15
  WS02004406           JUNCTION     0.76     1.12     6.95     0  01:53        1.11
  WS02004409           JUNCTION     0.44     0.84     6.61     0  01:57        0.84
  WS02004410           JUNCTION     0.46     0.84     6.56     0  01:57        0.84
  WS02004411           JUNCTION     0.48     0.84     6.52     0  01:58        0.84
  WS02004412           JUNCTION     0.50     0.83     6.47     0  01:58        0.83
  WS02004413           JUNCTION     0.65     0.97     6.44     0  01:58        0.97
  WS02004405           JUNCTION     0.75     1.14     6.99     0  01:52        1.13
  WS02006109           JUNCTION     0.70     1.24     7.86     0  01:55        1.23
  WS02006110           JUNCTION     0.69     1.10     7.68     0  01:55        1.09
  WS02006111           JUNCTION     0.21     0.59     7.29     0  01:55        0.59
  WS02006112           JUNCTION     0.79     1.37     7.26     0  01:54        1.37
  WS02006113           JUNCTION     0.30     0.60     7.49     0  01:55        0.60
  WS02006115           JUNCTION     0.52     1.06     7.20     0  01:54        1.05
  WS02006116           JUNCTION     0.60     1.12     7.16     0  01:53        1.11
  WS02006230           JUNCTION     0.64     1.37     8.11     0  01:50        1.34
  WS02006231           JUNCTION     0.42     1.01     8.14     0  01:50        0.97
  WS02006232           JUNCTION     0.54     1.14     8.18     0  01:50        1.06
  WS02006234           JUNCTION     0.44     1.08     8.24     0  01:50        0.95
  WS02006235           JUNCTION     0.47     1.06     8.23     0  01:50        0.93
  WS02006238           JUNCTION     0.49     1.09     8.23     0  01:50        0.97
  WS02006240           JUNCTION     0.39     1.10     8.40     0  01:50        0.84
  WS02006242           JUNCTION     0.44     1.26     8.53     0  01:50        0.88
  WS02006243           JUNCTION     0.32     1.18     8.60     0  01:51        0.77
  WS02006245           JUNCTION     0.31     0.70     8.19     0  01:53        0.69
  WS02006247           JUNCTION     0.33     0.75     8.25     0  01:51        0.70
  WS02006248           JUNCTION     0.29     0.63     8.22     0  01:51        0.61
  WS02006249           JUNCTION     0.32     0.62     8.21     0  01:51        0.60
  WS02006239           JUNCTION     0.44     1.12     8.33     0  01:50        0.91
  WS02006251           JUNCTION     0.31     0.60     8.27     0  07:49        0.60
  WS02006252           JUNCTION     0.25     0.59     8.83     0  07:46        0.59
  WS02006253           JUNCTION     0.34     0.63     8.27     0  07:50        0.63
  WS02006256           JUNCTION     0.84     1.15     8.09     0  00:00        1.14
  WS02004138           JUNCTION     0.08     0.14     7.39     0  05:43        0.14
  WS02004407           JUNCTION     0.20     0.36     6.68     0  01:56        0.36
  WS02006228           JUNCTION     0.69     1.36     8.01     0  01:54        1.35
  WS02006229           JUNCTION     0.67     1.39     8.08     0  01:54        1.39
  WS02006280           JUNCTION     0.07     0.25     8.52     0  01:55        0.25
  WS02006284           JUNCTION     0.37     0.64     9.04     0  01:55        0.64
  WS02006287           JUNCTION     0.11     0.38     9.33     0  01:54        0.38
  WSF200               JUNCTION     0.19     0.37     5.60     0  02:01        0.37
  HS02004901           JUNCTION     0.13     0.36    10.18     0  01:52        0.36
  HS02004881           JUNCTION     0.01     0.05     9.08     0  01:55        0.05
  HS02004876           JUNCTION     0.05     0.16     9.19     0  01:55        0.16
  HS02004870           JUNCTION     0.02     0.09     9.38     0  01:55        0.09
  HS02004862           JUNCTION     0.02     0.11     9.49     0  01:55        0.11
  HS02004856           JUNCTION     0.08     0.15     9.58     0  01:55        0.15
  HS02004852           JUNCTION     0.01     0.07     9.59     0  01:55        0.07
  HS02004848           JUNCTION     0.01     0.07     9.67     0  01:55        0.07
  HS02004842           JUNCTION     0.33     0.40     9.67     0  01:55        0.40
  HS02004837           JUNCTION     0.03     0.09     9.67     0  01:55        0.09
  HS02004830           JUNCTION     0.04     0.10     9.57     0  01:56        0.10
  HS02004824           JUNCTION     0.03     0.12     9.53     0  01:55        0.12
  HS02004817           JUNCTION     0.45     0.69     9.53     0  01:55        0.69
  HS02004807           JUNCTION     0.14     0.36     9.53     0  01:55        0.36
  HS02004802           JUNCTION     0.17     0.39     9.52     0  01:55        0.39
  HS02004799           JUNCTION     0.13     0.45     9.66     0  01:53        0.45
  HS02004792           JUNCTION     0.04     0.20     9.73     0  01:52        0.20
  HS02004788           JUNCTION     0.03     0.15    10.05     0  01:53        0.15
  HS02004785           JUNCTION     0.05     0.23    10.14     0  01:52        0.23
  HS02004777           JUNCTION     0.16     0.37    10.17     0  01:52        0.37
  HS02004770           JUNCTION     0.13     0.35    10.18     0  01:52        0.35
  HS02004480           JUNCTION     0.09     0.37     9.61     0  01:53        0.37
  HS02004479           JUNCTION     0.13     0.41     9.61     0  01:53        0.41
  HS02004478           JUNCTION     0.07     0.27     9.50     0  01:54        0.27
  YS02001745           JUNCTION     0.77     0.96     8.47     0  02:46        0.96
  YS02001748           JUNCTION     1.17     1.39     8.47     0  02:48        1.39
  YS02001751           JUNCTION     1.35     1.69     8.57     0  01:48        1.58
  YS02001754           JUNCTION     1.60     1.85     8.45     0  02:47        1.85
  YS02001762           JUNCTION     1.80     2.04     8.44     0  02:17        2.04
  YS02001765           JUNCTION     1.76     2.00     8.45     0  02:17        1.99
  YS02001767           JUNCTION     1.72     1.95     8.44     0  02:17        1.94
  YS02001770           JUNCTION     1.71     1.93     8.43     0  02:35        1.93
  YS02001774           JUNCTION     1.78     1.98     8.40     0  02:37        1.98
  YS02001779           JUNCTION     1.53     1.68     8.37     0  01:47        1.68
  YS02001882           JUNCTION     0.65     1.65     8.37     0  01:55        1.62
  YS02001884           JUNCTION     0.74     1.75     8.36     0  01:56        1.72
  YS02001759           JUNCTION     1.84     2.08     8.45     0  02:44        2.08
  YS02001887           JUNCTION     0.82     1.81     8.35     0  01:56        1.80
  YS02001890           JUNCTION     0.85     1.81     8.32     0  01:55        1.81
  YS02001898           JUNCTION     0.62     1.57     8.31     0  01:56        1.56
  YS02001901           JUNCTION     0.73     1.69     8.29     0  01:56        1.67
  YS02001904           JUNCTION     0.71     1.64     8.27     0  01:56        1.63
  YS02001907           JUNCTION     1.04     1.96     8.25     0  01:55        1.96
  YS02001910           JUNCTION     0.83     1.88     8.39     0  01:56        1.78
  YS02001915           JUNCTION     0.63     1.88     8.60     0  01:53        1.61
  YS02001918           JUNCTION     0.38     1.56     8.63     0  01:56        1.32
  YS02001619           JUNCTION     1.31     1.61     8.54     0  01:47        1.61
  YS02001629           JUNCTION     1.66     1.85     8.40     0  01:47        1.85
  YS02001641           JUNCTION     1.76     1.94     8.37     0  01:55        1.93
  YS02001644           JUNCTION     1.76     1.92     8.35     0  01:51        1.92
  YS02001652           JUNCTION     1.62     2.14     8.74     0  02:09        1.96
  YS02001655           JUNCTION     1.38     2.14     8.99     0  02:12        1.84
  YS02001920           JUNCTION     0.48     1.67     8.68     0  01:56        1.41
  YS02001923           JUNCTION     0.31     1.57     8.83     0  01:56        1.19
  YS02001926           JUNCTION     0.34     1.86     9.31     0  01:56        1.06
  YS02001929           JUNCTION     0.21     0.89     8.59     0  01:57        0.86
  YS02001658           JUNCTION     1.11     2.18     9.32     0  02:09        1.64
  YS02001661           JUNCTION     0.88     2.27     9.68     0  02:09        1.36
  YS02001664           JUNCTION     0.40     0.57     8.49     0  04:35        0.56
  YS02001622           JUNCTION     1.34     1.62     8.52     0  01:47        1.62
  YS02001633           JUNCTION     1.75     1.95     8.40     0  01:55        1.94
  YS02001649           JUNCTION     1.81     2.05     8.44     0  02:04        2.05
  YS02001757           JUNCTION     1.93     2.19     8.45     0  02:47        2.19
  YS02001895           JUNCTION     0.61     1.57     8.32     0  01:56        1.56
  YS02001625           JUNCTION     1.62     1.78     8.38     0  01:48        1.78
  YS02163301           JUNCTION     1.69     1.92     8.43     0  01:49        1.88
  YS02163601           JUNCTION     1.80     1.99     8.39     0  01:59        1.99
  YS02164001           JUNCTION     1.74     1.92     8.38     0  01:54        1.91
  YS02001647           JUNCTION     1.60     1.81     8.42     0  02:08        1.79
  YSB1154              JUNCTION     0.27     0.56     9.62     0  01:53        0.56
  YSB6556              JUNCTION     0.16     0.44     9.61     0  01:53        0.44
  YSB1174              JUNCTION     0.22     0.50     9.61     0  01:53        0.50
  YSB1171              JUNCTION     0.42     0.71     9.61     0  01:53        0.71
  YS02006553           JUNCTION     1.04     1.97     8.25     0  02:10        1.97
  YS02006561           JUNCTION     0.39     1.14     7.80     0  01:55        1.08
  YS02006556           JUNCTION     1.01     1.93     8.24     0  01:55        1.93
  YS02006558           JUNCTION     1.05     1.97     8.24     0  02:14        1.97
  YS02001783           JUNCTION     0.69     2.07     8.21     0  01:51        1.47
  YS02001784           JUNCTION     0.72     2.05     8.12     0  01:51        1.42
  YS02001786           JUNCTION     0.68     2.23     8.26     0  01:51        1.26
  YS02001788           JUNCTION     0.65     2.16     8.14     0  01:51        1.13
  YS02001790           JUNCTION     0.88     1.96     7.60     0  01:51        1.29
  YS02001791           JUNCTION     0.96     2.55     8.02     0  01:50        1.27
  YS02001793           JUNCTION     1.48     3.00     7.83     0  01:50        1.81
  WS02004139           JUNCTION     0.41     0.59     5.50     0  02:21        0.59
  WSC                  OUTFALL      0.23     0.38     1.05     0  02:04        0.38
  3                    OUTFALL      0.04     0.13     6.13     0  02:10        0.13
  4                    OUTFALL      0.00     0.11     7.11     0  01:51        0.10
  5                    OUTFALL      0.00     0.00     5.00     0  00:00        0.00
  JK-storage           STORAGE      5.21     5.80     6.60     0  01:51        5.80
  CC-storage           STORAGE      1.17     1.45     8.45     0  02:45        1.45
  XR-storage           STORAGE      7.63     7.72     5.72     0  00:42        7.72
  
  
  *******************
  Node Inflow Summary
  *******************
  
  -------------------------------------------------------------------------------------------------
                                  Maximum  Maximum                  Lateral       Total        Flow
                                  Lateral    Total  Time of Max      Inflow      Inflow     Balance
                                   Inflow   Inflow   Occurrence      Volume      Volume       Error
  Node                 Type           LPS      LPS  days hr:min    10^6 ltr    10^6 ltr     Percent
  -------------------------------------------------------------------------------------------------
  WS02001211           JUNCTION      7.35   197.32     0  05:50       0.207        2.13       1.133
  WS02001212           JUNCTION      0.00   196.99     0  05:50           0        2.11       0.627
  WS02001213           JUNCTION      0.00   196.86     0  05:50           0        2.09       0.682
  WS02003069           JUNCTION      0.32   896.32     0  02:02     0.00902        9.15       0.200
  WS02003072           JUNCTION      0.00   895.99     0  02:03           0        9.13       0.261
  WS02003073           JUNCTION      1.82   897.86     0  02:04      0.0514        9.16       0.265
  WS02003060           JUNCTION     16.53   895.89     0  02:02       0.466        9.16       0.201
  WS02003066           JUNCTION      0.00   792.27     0  01:58           0        6.65       0.059
  WS02003059           JUNCTION      0.00   197.07     0  05:51           0        2.08       1.453
  WS02003067           JUNCTION      0.00   791.95     0  01:58           0        6.66       0.127
  WS02004401           JUNCTION      0.00   796.94     0  01:56           0        6.89       0.318
  WS02004402           JUNCTION      0.00   796.90     0  01:56           0        6.86       0.299
  WS02004403           JUNCTION      0.00   796.95     0  01:56           0        6.84       0.271
  WS02004404           JUNCTION      0.16   797.87     0  01:56     0.00457        6.83       0.204
  WS02004406           JUNCTION      0.00   797.46     0  01:56           0         6.8       0.497
  WS02004409           JUNCTION      0.00   796.92     0  01:56           0        6.75       0.225
  WS02004410           JUNCTION      0.00   794.55     0  01:57           0        6.74       0.251
  WS02004411           JUNCTION      0.00   792.33     0  01:57           0        6.72       0.255
  WS02004412           JUNCTION      0.00   791.87     0  01:57           0        6.71       0.276
  WS02004413           JUNCTION      0.00   791.90     0  01:58           0        6.69       0.414
  WS02004405           JUNCTION      0.04   798.19     0  01:56     0.00107        6.82       0.305
  WS02006109           JUNCTION      1.23   775.42     0  01:54      0.0347        6.92       0.287
  WS02006110           JUNCTION      0.00   775.33     0  01:54           0         6.9       0.302
  WS02006111           JUNCTION      0.00   799.22     0  01:52           0        6.87       0.075
  WS02006112           JUNCTION     26.81   797.42     0  01:55      0.0948        6.96       0.429
  WS02006113           JUNCTION      0.00   775.30     0  01:54           0        6.88       0.153
  WS02006115           JUNCTION      0.00   797.26     0  01:55           0        6.93       0.301
  WS02006116           JUNCTION      0.00   796.75     0  01:55           0         6.9       0.285
  WS02006230           JUNCTION     10.28   381.87     0  05:56        0.29        4.23       0.353
  WS02006231           JUNCTION      0.00   372.79     0  05:54           0        3.95       0.293
  WS02006232           JUNCTION      0.00   373.08     0  05:54           0        3.97       0.431
  WS02006234           JUNCTION      0.00   375.47     0  05:53           0        3.98       0.236
  WS02006235           JUNCTION      0.00   377.28     0  05:53           0        4.06       0.281
  WS02006238           JUNCTION      0.00   336.44     0  07:50           0        3.03       0.256
  WS02006240           JUNCTION      0.00   337.11     0  07:48           0        3.02       0.493
  WS02006242           JUNCTION      0.00   339.24     0  07:42           0        3.02       0.603
  WS02006243           JUNCTION      0.00   345.18     0  07:41           0        3.02       0.248
  WS02006245           JUNCTION      0.00   348.71     0  07:41           0        3.04       0.591
  WS02006247           JUNCTION      0.00   352.75     0  07:41           0        3.05       0.346
  WS02006248           JUNCTION      0.00   356.83     0  07:41           0        3.05       0.145
  WS02006249           JUNCTION      0.00   400.39     0  07:49           0        3.16       0.598
  WS02006239           JUNCTION      0.00   336.65     0  07:50           0        3.01       0.090
  WS02006251           JUNCTION      0.08   401.34     0  07:41     0.00217         3.2       0.421
  WS02006252           JUNCTION      0.00   400.00     0  07:40           0        2.64       0.019
  WS02006253           JUNCTION      3.66   142.87     0  01:54      0.0117       0.567       1.470
  WS02006256           JUNCTION      0.00   300.00     0  03:40           0        2.24       0.126
  WS02004138           JUNCTION      0.00   190.00     0  05:40           0        1.94       0.094
  WS02004407           JUNCTION      0.00   797.39     0  01:56           0        6.76       0.110
  WS02006228           JUNCTION      0.00   774.17     0  01:54           0         6.9       0.224
  WS02006229           JUNCTION      0.00   778.32     0  01:53           0        6.92       0.216
  WS02006280           JUNCTION      0.00   656.05     0  01:55           0         2.7       0.002
  WS02006284           JUNCTION      0.10   655.97     0  01:55      0.0027         2.7       0.039
  WS02006287           JUNCTION      0.00   655.81     0  01:54           0         2.7       0.027
  WSF200               JUNCTION      0.00   792.29     0  01:58           0        6.65       0.051
  HS02004901           JUNCTION     32.57    32.57     0  01:50       0.114       0.115       1.559
  HS02004881           JUNCTION     13.82   139.59     0  01:54      0.0479       0.529       0.048
  HS02004876           JUNCTION     24.51   126.37     0  01:54      0.0923       0.482       0.114
  HS02004870           JUNCTION     25.44   102.13     0  01:54      0.0907        0.39       0.027
  HS02004862           JUNCTION     23.11    77.53     0  01:55       0.099       0.299       0.058
  HS02004856           JUNCTION     19.02    54.51     0  01:55      0.0682       0.202       0.722
  HS02004852           JUNCTION      0.00    36.10     0  01:55           0       0.134       0.042
  HS02004848           JUNCTION     50.49    50.49     0  01:57       0.223       0.223       0.020
  HS02004842           JUNCTION      0.00    15.55     0  02:06           0       0.102      14.562
  HS02004837           JUNCTION     49.08    62.50     0  01:55       0.337       0.426       0.190
  HS02004830           JUNCTION      0.15    62.61     0  01:55     0.00423       0.416       0.298
  HS02004824           JUNCTION     60.06   122.21     0  01:58       0.286       0.702       0.077
  HS02004817           JUNCTION      0.60   124.03     0  01:59      0.0169       0.718       2.378
  HS02004807           JUNCTION     47.25   168.29     0  01:57       0.166       0.868       0.499
  HS02004802           JUNCTION      0.00   169.25     0  01:58           0       0.865       0.462
  HS02004799           JUNCTION     37.43   414.53     0  01:52       0.135        1.57       0.166
  HS02004792           JUNCTION    160.44   377.30     0  01:52       0.598        1.44       0.028
  HS02004788           JUNCTION     53.14   218.54     0  01:52        0.24       0.839       0.046
  HS02004785           JUNCTION      0.15   165.59     0  01:52     0.00423       0.601       0.083
  HS02004777           JUNCTION      0.03   165.80     0  01:51    0.000846       0.601       0.872
  HS02004770           JUNCTION    134.74   166.64     0  01:51        0.49       0.602       0.515
  HS02004480           JUNCTION      0.00   492.22     0  01:53           0        1.85       0.065
  HS02004479           JUNCTION      0.00    78.00     0  01:53           0       0.292       0.251
  HS02004478           JUNCTION      0.00   655.77     0  01:54           0         2.7       0.013
  YS02001745           JUNCTION    386.89   386.89     0  02:16        3.55        3.55       0.300
  YS02001748           JUNCTION      0.04   396.43     0  02:16     0.00127        3.54       0.647
  YS02001751           JUNCTION      0.01   396.02     0  02:16     0.00031        3.52       0.679
  YS02001754           JUNCTION      0.26   396.43     0  02:16     0.00733         3.5       0.701
  YS02001762           JUNCTION      0.00   433.62     0  02:03           0         2.4       0.880
  YS02001765           JUNCTION      0.00   433.70     0  02:03           0         2.4       1.014
  YS02001767           JUNCTION      0.54   433.67     0  02:03      0.0151        2.42       1.487
  YS02001770           JUNCTION    491.42   722.14     0  02:49        3.94        4.96       0.632
  YS02001774           JUNCTION      0.00   722.28     0  02:49           0        3.54       0.705
  YS02001779           JUNCTION      0.01   722.34     0  02:49    0.000141        3.51       0.440
  YS02001882           JUNCTION      0.00   103.52     0  01:53           0      0.0284       8.136
  YS02001884           JUNCTION      0.00   111.12     0  01:52           0      0.0652      10.122
  YS02001759           JUNCTION    476.91   864.10     0  02:03        3.62        4.97       0.458
  YS02001887           JUNCTION    605.93   606.23     0  02:16        4.13        4.16       0.200
  YS02001890           JUNCTION      0.00   606.19     0  02:16           0        4.11       0.223
  YS02001898           JUNCTION      0.00   518.22     0  02:24           0           4       0.066
  YS02001901           JUNCTION      0.00   518.30     0  02:24           0           4       0.172
  YS02001904           JUNCTION      0.00   518.03     0  02:23           0        3.99       0.153
  YS02001907           JUNCTION      0.00  1111.47     0  01:57           0        9.14       0.266
  YS02001910           JUNCTION      0.00   602.83     0  01:57           0        5.16       0.224
  YS02001915           JUNCTION    345.21   602.65     0  01:57        2.96        5.21       0.113
  YS02001918           JUNCTION      0.00   336.13     0  01:57           0        2.29       0.060
  YS02001619           JUNCTION    336.52   336.52     0  02:16        2.95        2.95       0.415
  YS02001629           JUNCTION      0.00   244.54     0  01:47           0        1.45       1.996
  YS02001641           JUNCTION      0.00   423.92     0  01:51           0        4.86       0.429
  YS02001644           JUNCTION    367.62  1543.02     0  02:48        3.42        13.4       0.196
  YS02001652           JUNCTION      0.00   472.18     0  02:14           0        3.05       0.754
  YS02001655           JUNCTION      0.15   472.25     0  02:14     0.00434        3.08       0.820
  YS02001920           JUNCTION      2.87   336.18     0  01:57      0.0809        2.26       0.129
  YS02001923           JUNCTION      0.04   296.16     0  01:56     0.00106        2.16       0.036
  YS02001926           JUNCTION      0.05   313.34     0  01:55     0.00147        2.14       0.153
  YS02001929           JUNCTION    185.81   208.88     0  01:56        2.12        2.13       0.031
  YS02001658           JUNCTION      0.00   479.68     0  02:14           0         3.1       0.756
  YS02001661           JUNCTION      0.00   773.75     0  02:04           0        3.67      -0.105
  YS02001664           JUNCTION    437.54   437.54     0  02:16         3.1        3.67       0.155
  YS02001622           JUNCTION      0.00   336.89     0  02:16           0        2.94       1.088
  YS02001633           JUNCTION    373.18   424.24     0  01:51        3.53        4.93       0.649
  YS02001649           JUNCTION      0.00   997.82     0  01:58           0        7.13       0.518
  YS02001757           JUNCTION      0.00  2131.06     0  02:02           0        9.47       0.980
  YS02001895           JUNCTION      0.00   518.26     0  02:23           0           4       0.127
  YS02001625           JUNCTION      0.00   336.63     0  02:16           0        2.91       1.371
  YS02163301           JUNCTION      0.00   229.21     0  01:48           0        1.44       1.675
  YS02163601           JUNCTION      0.11   424.38     0  01:51      0.0031        4.87       0.616
  YS02164001           JUNCTION      0.00   424.34     0  01:51           0        4.85       0.410
  YS02001647           JUNCTION      0.00   820.55     0  02:48           0        6.24       0.453
  YSB1154              JUNCTION     43.61    43.61     0  01:53       0.163       0.164       0.887
  YSB6556              JUNCTION      0.00    43.64     0  01:53           0       0.165       0.764
  YSB1174              JUNCTION     35.87    35.87     0  01:50        0.12        0.12       1.077
  YSB1171              JUNCTION      0.00    78.03     0  01:52           0       0.291       2.227
  YS02006553           JUNCTION      0.00   682.64     0  03:22           0        7.11       0.221
  YS02006561           JUNCTION      0.00   968.43     0  02:16           0        10.9       0.006
  YS02006556           JUNCTION      0.00   682.69     0  03:22           0        7.11       0.159
  YS02006558           JUNCTION    522.52   968.92     0  02:16        3.81        10.9       0.049
  YS02001783           JUNCTION      0.00   968.41     0  02:16           0        10.9       0.024
  YS02001784           JUNCTION      1.06   969.52     0  02:16      0.0299        10.9       0.047
  YS02001786           JUNCTION      0.06   969.58     0  02:16     0.00159        10.9       0.067
  YS02001788           JUNCTION      0.07   969.42     0  02:16       0.002        10.9       0.075
  YS02001790           JUNCTION      0.15   969.80     0  02:16     0.00437        10.9       0.142
  YS02001791           JUNCTION      0.00   969.77     0  02:15           0        10.9       0.114
  YS02001793           JUNCTION      0.00   969.89     0  02:15           0        10.9       0.139
  WS02004139           JUNCTION      0.32   190.32     0  05:43     0.00905        1.95       1.218
  WSC                  OUTFALL       0.00   897.89     0  02:04           0        9.13       0.000
  3                    OUTFALL       0.00   260.35     0  02:10           0        1.17       0.000
  4                    OUTFALL       0.00   127.84     0  01:51           0      0.0869       0.000
  5                    OUTFALL       0.00     0.00     0  00:00           0           0       0.000 ltr
  JK-storage           STORAGE       0.00   997.87     0  01:49           0          11       0.175
  CC-storage           STORAGE       0.00  2130.49     0  02:02           0        6.37       0.993
  XR-storage           STORAGE     844.69   844.69     0  03:01        12.1        12.7       0.003
  
  
  **********************
  Node Surcharge Summary
  **********************
  
  Surcharging occurs when water rises above the top of the highest conduit.
  ---------------------------------------------------------------------
                                               Max. Height   Min. Depth
                                   Hours       Above Crown    Below Rim
  Node                 Type      Surcharged         Meters       Meters
  ---------------------------------------------------------------------
  WS02004401           JUNCTION        0.43          0.111        1.549
  WS02004402           JUNCTION        0.46          0.115        1.625
  WS02004403           JUNCTION        0.47          0.107        1.923
  WS02004404           JUNCTION        0.57          0.157        2.623
  WS02004406           JUNCTION        0.53          0.117        2.333
  WS02004405           JUNCTION        0.55          0.137        2.663
  WS02006109           JUNCTION        0.89          0.422        1.398
  WS02006110           JUNCTION        0.65          0.186        1.664
  WS02006112           JUNCTION        0.72          0.375        1.305
  WS02006115           JUNCTION        0.16          0.046        2.204
  WS02006116           JUNCTION        0.21          0.061        2.229
  WS02006230           JUNCTION        0.52          0.289        1.281
  WS02006231           JUNCTION        0.52          0.302        1.228
  WS02006232           JUNCTION        0.74          0.444        1.036
  WS02006234           JUNCTION        0.51          0.361        0.879
  WS02006235           JUNCTION        0.52          0.353        0.937
  WS02006238           JUNCTION        0.53          0.368        1.062
  WS02006240           JUNCTION        0.40          0.395        0.995
  WS02006242           JUNCTION        0.42          0.530        0.290
  WS02006243           JUNCTION        0.11          0.474        0.296
  WS02006247           JUNCTION        0.01          0.042        0.718
  WS02006239           JUNCTION        0.47          0.377        0.913
  WS02006252           JUNCTION        0.49          0.192        0.908
  WS02006228           JUNCTION        0.88          0.526        1.674
  YS02001748           JUNCTION        5.99          0.309        0.881
  YS02001751           JUNCTION        6.02          0.692        0.508
  YS02001754           JUNCTION        6.05          0.795        0.355
  YS02001762           JUNCTION        6.09          1.044        0.106
  YS02001765           JUNCTION        6.08          0.997        0.103
  YS02001767           JUNCTION        6.07          0.948        0.082
  YS02001770           JUNCTION        6.07          0.900        0.020
  YS02001774           JUNCTION        6.08          0.982        0.068
  YS02001779           JUNCTION        6.04          0.680        0.000
  YS02001882           JUNCTION        1.78          0.653        0.177
  YS02001884           JUNCTION        1.81          0.687        0.183
  YS02001759           JUNCTION        6.09          1.083        0.127
  YS02001887           JUNCTION        1.88          0.764        0.186
  YS02001890           JUNCTION        1.90          0.760        0.000
  YS02001898           JUNCTION        1.74          0.544        0.196
  YS02001901           JUNCTION        1.85          0.685        0.185
  YS02001904           JUNCTION        1.83          0.645        0.205
  YS02001907           JUNCTION        2.26          0.950        0.000
  YS02001910           JUNCTION        1.95          0.884        0.216
  YS02001915           JUNCTION        1.77          0.880        0.120
  YS02001918           JUNCTION        1.55          0.565        0.245
  YS02001619           JUNCTION        6.02          0.610        0.000
  YS02001629           JUNCTION        6.02          0.470        0.000
  YS02001641           JUNCTION        6.08          0.937        0.163
  YS02001644           JUNCTION        6.08          0.920        0.000
  YS02001652           JUNCTION        6.05          1.109        0.021
  YS02001655           JUNCTION        6.02          1.140        0.060
  YS02001920           JUNCTION        1.58          0.673        0.467
  YS02001923           JUNCTION        0.01          0.362        0.458
  YS02001926           JUNCTION        0.01          0.861        0.039
  YS02001658           JUNCTION        5.99          1.180        0.120
  YS02001661           JUNCTION        0.14          1.204        0.186
  YS02001622           JUNCTION        6.02          0.620        0.000
  YS02001633           JUNCTION        6.08          0.927        0.133
  YS02001649           JUNCTION        6.08          1.050        0.000
  YS02001757           JUNCTION        6.12          1.186        0.024
  YS02001895           JUNCTION        1.75          0.570        0.180
  YS02001625           JUNCTION        6.05          0.780        0.000
  YS02163301           JUNCTION        6.07          0.916        0.114
  YS02163601           JUNCTION        6.09          0.990        0.090
  YS02164001           JUNCTION        6.08          0.921        0.179
  YS02001647           JUNCTION        6.05          0.806        0.094
  YS02006553           JUNCTION        2.32          0.969        0.221
  YS02006561           JUNCTION        1.66          0.337        0.813
  YS02006556           JUNCTION        2.12          0.893        0.457
  YS02006558           JUNCTION        2.09          0.874        0.526
  YS02001783           JUNCTION        2.13          1.272        0.328
  YS02001784           JUNCTION        2.21          1.253        0.237
  YS02001786           JUNCTION        2.14          1.430        0.000
  YS02001788           JUNCTION        2.13          1.364        0.116
  YS02001790           JUNCTION        4.98          1.157        0.000
  YS02001791           JUNCTION        5.15          1.749        0.171
  YS02001793           JUNCTION        5.57          1.998        0.602
  
  
  *********************
  Node Flooding Summary
  *********************
  
  Flooding refers to all water that overflows a node, whether it ponds or not.
  --------------------------------------------------------------------------
                                                             Total   Maximum
                                 Maximum   Time of Max       Flood    Ponded
                        Hours       Rate    Occurrence      Volume     Depth
  Node                 Flooded       LPS   days hr:min    10^6 ltr    Meters
  --------------------------------------------------------------------------
  YS02001779              3.66    722.33      0  02:49       3.495     0.000
  YS02001890              0.59     90.14      0  02:15       0.101     0.000
  YS02001907              1.41    582.85      0  02:14       2.017     0.000
  YS02001619              0.01     56.92      0  01:47       0.000     0.000
  YS02001629              0.01    205.09      0  01:47       0.001     0.000
  YS02001644              5.77   1543.01      0  02:48      12.195     0.000
  YS02001622              0.01     74.19      0  01:47       0.000     0.000
  YS02001649              0.02     42.64      0  02:12       0.001     0.000
  YS02001625              2.01    325.87      0  02:16       1.443     0.000
  YS02001786              0.01     60.43      0  01:51       0.000     0.000
  YS02001790              0.01    236.98      0  01:51       0.000     0.000
  JK-storage              4.41    969.19      0  02:22       8.487     0.000
  XR-storage              7.12    811.98      0  02:40       9.844     0.000
  
  
  **********************
  Storage Volume Summary
  **********************
  
  --------------------------------------------------------------------------------------------------
                         Average     Avg  Evap Exfil       Maximum     Max    Time of Max    Maximum
                          Volume    Pcnt  Pcnt  Pcnt        Volume    Pcnt     Occurrence    Outflow
  Storage Unit           1000 m3    Full  Loss  Loss       1000 m3    Full    days hr:min        LPS
  --------------------------------------------------------------------------------------------------
  JK-storage               0.262      90     0     0         0.291     100       0  01:51     300.00
  CC-storage               3.269      21     0     0         4.035      26       0  02:45     400.00
  XR-storage               0.916      99     0     0         0.926     100       0  00:42     190.00
  
  
  ***********************
  Outfall Loading Summary
  ***********************
  
  -----------------------------------------------------------
                         Flow       Avg       Max       Total
                         Freq      Flow      Flow      Volume
  Outfall Node           Pcnt       LPS       LPS    10^6 ltr
  -----------------------------------------------------------
  WSC                   99.99    362.90    897.89       9.133
  3                     45.26    128.61    260.35       1.171
  4                      8.48     35.39    127.84       0.087
  5                      0.00      0.00      0.00       0.000
  -----------------------------------------------------------
  System                38.43    526.91   1101.89      10.391
  
  
  ********************
  Link Flow Summary
  ********************
  
  -----------------------------------------------------------------------------
                                 Maximum  Time of Max   Maximum    Max/    Max/
                                  |Flow|   Occurrence   |Veloc|    Full    Full
  Link                 Type          LPS  days hr:min     m/sec    Flow   Depth
  -----------------------------------------------------------------------------
  WS02003066WSF200     CONDUIT    792.29     0  01:58      3.09    0.13    0.28
  WS02006287WS02006284 CONDUIT    655.87     0  01:55      2.36    0.30    0.38
  WS02006284WS02006280 CONDUIT    656.05     0  01:55      2.59    0.27    0.36
  WS02006280WS02006229 CONDUIT    656.06     0  01:55      4.21    0.14    0.25
  WS02006229WS02006228 CONDUIT    774.17     0  01:54      1.54    2.56    1.00
  WS02006256WS02006235 CONDUIT    166.25     0  00:01      2.58    1.76    1.00
  WS02006253WS02006251 CONDUIT    156.94     0  01:53      0.61    0.47    0.87
  WS02006252WS02006251 CONDUIT    400.66     0  07:45      3.19    1.47    1.00
  WS02006251WS02006249 CONDUIT    400.39     0  07:49      1.17    1.15    0.85
  WS02006249WS02006248 CONDUIT    356.83     0  07:41      1.16    1.95    0.86
  WS02006248WS02006247 CONDUIT    352.75     0  07:41      1.13    0.77    0.93
  WS02006247WS02006245 CONDUIT    348.71     0  07:41      1.10    2.76    0.99
  WS02006245WS02006243 CONDUIT    345.18     0  07:41      1.13    1.02    1.00
  WS02006243WS02006242 CONDUIT    339.24     0  07:42      1.02    0.72    1.00
  WS02006242WS02006240 CONDUIT    337.11     0  07:48      0.96    1.34    1.00
  WS02006240WS02006239 CONDUIT    336.65     0  07:50      1.01    1.06    1.00
  WS02006239WS02006238 CONDUIT    336.44     0  07:50      0.93    1.08    1.00
  WS02006238WS02006235 CONDUIT    336.40     0  07:50      1.25    0.75    1.00
  WS02006235WS02006234 CONDUIT    375.47     0  05:53      1.03    3.96    1.00
  WS02006234WS02006232 CONDUIT    373.08     0  05:54      1.13    0.75    1.00
  WS02006232WS02006231 CONDUIT    372.79     0  05:54      1.03    0.78    1.00
  WS02006231WS02006230 CONDUIT    371.59     0  05:56      1.34    5.64    1.00
  WS02006230WS02006229 CONDUIT    381.38     0  05:57      0.99    8.49    1.00
  WS02006228WS02006109 CONDUIT    774.19     0  01:54      1.54    3.38    1.00
  WS02006116WS02004401 CONDUIT    796.94     0  01:56      1.01    1.10    1.00
  WS02006115WS02006116 CONDUIT    796.75     0  01:55      1.01    1.02    1.00
  WS02006113WS02006111 CONDUIT    799.22     0  01:52      2.65    0.96    0.74
  WS02006112WS02006115 CONDUIT    797.26     0  01:55      1.02    0.47    1.00
  WS02006111WS02006112 CONDUIT    772.49     0  01:55      1.79    0.37    0.86
  WS02006110WS02006113 CONDUIT    775.30     0  01:54      1.72    0.71    0.87
  WS02006109WS02006110 CONDUIT    775.33     0  01:54      1.54    1.49    1.00
  WS02004411WS02004412 CONDUIT    791.87     0  01:57      1.13    1.12    0.83
  WS02004401WS02004402 CONDUIT    796.90     0  01:56      1.01    0.96    1.00
  WS02004413WS02003067 CONDUIT    791.95     0  01:58      1.38    0.34    0.68
  WS02004412WS02004413 CONDUIT    791.90     0  01:58      1.07    0.53    0.90
  WS02004410WS02004411 CONDUIT    792.33     0  01:57      1.13    1.08    0.84
  WS02004409WS02004410 CONDUIT    794.55     0  01:57      1.13    1.03    0.84
  WS02004407WS02004409 CONDUIT    796.92     0  01:56      1.67    0.28    0.60
  WS02004406WS02004407 CONDUIT    797.39     0  01:56      1.40    0.36    0.68
  WS02004405WS02004406 CONDUIT    797.46     0  01:56      1.02    1.57    1.00
  WS02004404WS02004405 CONDUIT    798.15     0  01:56      1.02    7.82    1.00
  WS02004403WS02004404 CONDUIT    797.70     0  01:56      1.02    0.58    1.00
  WS02004402WS02004403 CONDUIT    796.95     0  01:56      1.01    1.14    1.00
  WS02004139WS02001211 CONDUIT    189.97     0  05:50      0.53    0.24    0.48
  WS02004138WS02004139 CONDUIT    190.00     0  05:43      2.39    0.04    0.34
  WS02003067WS02003066 CONDUIT    792.27     0  01:58      1.51    0.25    0.47
  WS02001213WS02003059 CONDUIT    197.07     0  05:51      0.41    0.33    0.71
  WS02001212WS02001213 CONDUIT    196.86     0  05:50      1.03    0.30    0.39
  WS02001211WS02001212 CONDUIT    196.99     0  05:50      0.54    0.15    0.53
  WS02003072WS02003073 CONDUIT    896.04     0  02:04      1.70    1.94    0.47
  WS02003069WS02003072 CONDUIT    895.99     0  02:03      1.60    0.43    0.50
  WS02003060WS02003069 CONDUIT    896.00     0  02:02      1.85    0.35    0.44
  WS02003059WS02003060 CONDUIT    197.21     0  05:51      0.56    0.13    0.63
  HS02004901HS02004770 CONDUIT     31.95     0  01:52      0.09    0.12    0.51
  HS02004876HS02004881 CONDUIT    126.38     0  01:55      1.20    1.34    0.15
  HS02004870HS02004876 CONDUIT    102.10     0  01:55      0.82    0.07    0.18
  HS02004842HS02004848 CONDUIT     15.55     0  02:06      0.07    0.01    0.33
  HS02004837HS02004842 CONDUIT     15.96     0  02:07      0.41    0.01    0.35
  HS02004830HS02004837 CONDUIT     62.46     0  01:55      0.66    0.06    0.14
  HS02004824HS02004830 CONDUIT     62.57     0  01:56      0.62    0.08    0.16
  HS02004817HS02004824 CONDUIT    123.43     0  01:59      0.31    0.06    0.58
  HS02004770HS02004777 CONDUIT    165.77     0  01:51      0.46    0.30    0.52
  HS02004799HS02004480 CONDUIT    414.30     0  01:53      1.02    0.52    0.58
  HS02004792HS02004799 CONDUIT    377.21     0  01:52      1.15    0.23    0.47
  HS02004788HS02004792 CONDUIT    218.44     0  01:53      1.24    0.14    0.25
  HS02004785HS02004788 CONDUIT    165.54     0  01:53      0.86    1.25    0.27
  HS02004777HS02004785 CONDUIT    165.44     0  01:52      0.54    0.20    0.44
  HS02004480HS02004478 CONDUIT    492.14     0  01:53      1.52    2.07    0.46
  HS02004479HS02004480 CONDUIT     78.30     0  01:54      0.27    0.08    0.55
  HS02004862HS02004870 CONDUIT     77.52     0  01:55      0.79    0.08    0.14
  HS02004848HS02004852 CONDUIT     36.10     0  01:55      0.52    0.04    0.10
  HS02004856HS02004862 CONDUIT     54.46     0  01:55      0.59    0.05    0.13
  HS02004852HS02004856 CONDUIT     36.15     0  01:56      0.33    0.04    0.16
  HS02004802HS02004478 CONDUIT    170.22     0  01:58      0.53    0.15    0.47
  HS02004478WS02006287 CONDUIT    655.81     0  01:54      2.08    0.18    0.35
  HS02004817HS02004807 CONDUIT    125.36     0  01:59      0.24    0.07    0.75
  HS02004807HS02004802 CONDUIT    169.25     0  01:58      0.47    0.32    0.53
  YS02001759YS02001757 CONDUIT    865.38     0  02:03      1.10    0.61    1.00
  YS02001762YS02001759 CONDUIT    433.59     0  02:03      0.55    0.50    1.00
  YS02001765YS02001762 CONDUIT    433.62     0  02:03      0.55    0.41    1.00
  YS02001770YS02001767 CONDUIT    433.14     0  02:03      0.55    1.72    1.00
  YS02001774YS02001770 CONDUIT    722.28     0  02:49      0.92    0.46    1.00
  YS02001779YS02001774 CONDUIT    722.34     0  02:49      0.92    0.36    1.00
  YS02001649YS02001757 CONDUIT    998.45     0  01:58      1.27    0.61    1.00
  YS02001767YS02001765 CONDUIT    433.70     0  02:03      0.55    0.55    1.00
  YS02006561YS02001783 CONDUIT    968.41     0  02:16      2.14    0.50    1.00
  YS02001783YS02001784 CONDUIT    968.46     0  02:16      1.93    1.34    1.00
  YS02001784YS02001785 CONDUIT    969.52     0  02:16      1.93    2.26    1.00
  YS02001788YS02001790 CONDUIT    969.65     0  02:16      2.32    0.71    1.00
  YS02001790YS02001791 CONDUIT    969.77     0  02:15      2.84    1.06    1.00
  YS02001791YS02001793 CONDUIT    969.89     0  02:15      5.58    0.42    1.00
  YS02001910YS02001907 CONDUIT    602.90     0  01:57      0.77    0.34    1.00
  YS02001786YS02001788 CONDUIT    969.35     0  02:16      2.23    1.87    1.00
  YS02001915YS02001910 CONDUIT    602.83     0  01:57      0.77    0.30    1.00
  YS02001918YS02001915 CONDUIT    336.98     0  01:57      0.46    0.19    1.00
  YS02001923YS02001920 CONDUIT    333.31     0  01:57      0.78    0.15    1.00
  YS02001926YS02001923 CONDUIT    290.49     0  01:57      0.87    0.41    1.00
  YS02001929YS02001926 CONDUIT    219.57     0  01:57      0.93    0.10    0.95
  YS02001920YS02001918 CONDUIT    336.13     0  01:57      0.75    0.33    1.00
  YS02001629YS02163301 CONDUIT    229.21     0  01:48      0.29    0.28    1.00
  YS02001619YS02001622 CONDUIT    336.89     0  02:16      0.76    0.50    1.00
  YS02001622YS02001625 CONDUIT    336.63     0  02:16      0.43    0.18    1.00
  YS02001625YS02001629 CONDUIT    210.03     0  01:47      0.31    0.10    1.00
  YS02163301YS02001633 CONDUIT    229.26     0  01:48      0.29    0.22    1.00
  YS02163601YS02164001 CONDUIT    424.34     0  01:51      0.54    0.38    1.00
  YS02164001YS02001641 CONDUIT    423.92     0  01:51      0.54    0.58    1.00
  YS02001641YS02001644 CONDUIT    423.99     0  01:51      0.54    1.37    1.00
  YS02001647YS02001649 CONDUIT    820.55     0  02:48      1.04    0.43    1.00
  YS02006553YS02006556 CONDUIT    682.69     0  03:22      0.87    0.58    1.00
  YS02006556YS02006558 CONDUIT    682.79     0  03:22      0.87    0.54    1.00
  YSB6556YSB1171       CONDUIT     43.98     0  01:54      0.13    0.05    0.82
  YS02001907YS02006553 CONDUIT    682.64     0  03:22      0.76    0.80    1.00
  YS02006558YS02006561 CONDUIT    968.43     0  02:16      3.43    2.14    1.00
  YS02001633YS02163601 CONDUIT    424.27     0  01:51      0.54    0.45    1.00
  YS02001644YS02001647 CONDUIT    820.66     0  02:48      1.04    0.48    1.00
  YS02001745YS02001748 CONDUIT    396.39     0  02:16      1.73    0.15    0.98
  YS02001748YS02001751 CONDUIT    396.01     0  02:16      1.25    0.20    1.00
  YS02001751YS02001754 CONDUIT    396.17     0  02:16      1.03    0.19    1.00
  YS02001754YS02001757 CONDUIT    396.24     0  02:16      0.50    0.16    1.00
  YS02001882YS02001884 CONDUIT    103.52     0  01:53      0.13    0.12    1.00
  YS02001884YS02001887 CONDUIT    111.12     0  01:52      0.14    0.15    1.00
  YS02001890YS02001895 CONDUIT    518.26     0  02:23      0.66    0.24    1.00
  YS02001895YS02001898 CONDUIT    518.22     0  02:24      0.66    0.90    1.00
  YS02001898YS02001901 CONDUIT    518.30     0  02:24      0.66    0.33    1.00
  YS02001901YS02001904 CONDUIT    518.03     0  02:23      0.66    0.80    1.00
  YS02001904YS02001907 CONDUIT    518.57     0  02:29      0.66    0.18    1.00
  YS02001887YS02001890 CONDUIT    606.19     0  02:16      0.77    1.04    1.00
  YS02001652YS02001649 CONDUIT    472.49     0  02:14      0.60    0.23    1.00
  YS02001655YS02001652 CONDUIT    472.18     0  02:14      1.09    0.23    1.00
  YS02001658YS02001655 CONDUIT    472.10     0  02:14      1.45    0.20    1.00
  YS02001661YS02001658 CONDUIT    479.68     0  02:14      1.85    0.19    1.00
  YS02001664YS02001661 CONDUIT    773.75     0  02:04      1.75    0.24    0.77
  YSB1154YSB6556       CONDUIT     43.64     0  01:53      0.17    0.08    0.72
  YSB1174YSB1171       CONDUIT     35.14     0  01:50      0.10    0.05    0.83
  YSB1171HS02004479    CONDUIT     78.00     0  01:53      0.54    0.05    0.67
  HS02004881HS02006253 CONDUIT    139.59     0  01:55      2.33    0.03    0.24
  YS02001793JiankangQianchi CONDUIT    997.87     0  01:49      9.84    0.08    1.00
  YS02001757CaochengTiaoxuchi CONDUIT   2130.49     0  02:02      3.70    0.94    1.00
  WSF200WS02003060     CONDUIT    791.85     0  01:59      2.23    0.18    0.36
  1                    CONDUIT    897.89     0  02:04      3.23    0.31    0.38
  2                    CONDUIT    127.84     0  01:51      5.19    0.31    0.38
  3                    CONDUIT    260.35     0  02:10      8.42    0.41    0.46
  4                    CONDUIT      0.00     0  00:00      0.00    0.00    0.00
  CC-Pump-1            PUMP       200.00     0  05:30              1.00
  CC-Pump-2            PUMP       200.00     0  03:10              1.00
  JK-Pump-1            PUMP       300.00     0  05:00              1.00
  JK-Pump-2            PUMP       300.00     0  00:00              1.00
  XR-Pump-1            PUMP        95.00     0  01:40              1.00
  XR-Pump-2            PUMP        94.99     0  02:50              1.00
  XR-Pump-3            PUMP        94.82     0  00:50              1.00
  XR-Pump-4            PUMP        95.00     0  00:00              1.00
  
  
  ***************************
  Flow Classification Summary
  ***************************
  
  -------------------------------------------------------------------------------------
                      Adjusted    ---------- Fraction of Time in Flow Class ---------- 
                       /Actual         Up    Down  Sub   Sup   Up    Down  Norm  Inlet 
  Conduit               Length    Dry  Dry   Dry   Crit  Crit  Crit  Crit  Ltd   Ctrl  
  -------------------------------------------------------------------------------------
  WS02003066WSF200        1.00   0.07  0.00  0.00  0.00  0.93  0.00  0.00  0.68  0.00
  WS02006287WS02006284    1.00   0.05  0.01  0.00  0.61  0.33  0.00  0.00  0.65  0.00
  WS02006284WS02006280    1.00   0.05  0.00  0.00  0.00  0.00  0.00  0.95  0.00  0.00
  WS02006280WS02006229    1.00   0.05  0.00  0.00  0.00  0.00  0.00  0.95  0.00  0.00
  WS02006229WS02006228    1.00   0.00  0.00  0.00  0.98  0.00  0.00  0.02  0.00  0.00
  WS02006256WS02006235    1.00   0.00  0.00  0.00  1.00  0.00  0.00  0.00  0.00  0.00
  WS02006253WS02006251    1.00   0.03  0.01  0.00  0.95  0.00  0.00  0.00  0.00  0.00
  WS02006252WS02006251    1.00   0.08  0.00  0.00  0.00  0.00  0.92  0.00  0.00  0.00
  WS02006251WS02006249    1.00   0.00  0.00  0.00  1.00  0.00  0.00  0.00  0.25  0.00
  WS02006249WS02006248    1.00   0.00  0.02  0.00  0.82  0.00  0.15  0.00  0.00  0.00
  WS02006248WS02006247    1.00   0.03  0.00  0.00  0.97  0.00  0.00  0.00  0.15  0.00
  WS02006247WS02006245    1.00   0.02  0.00  0.00  0.97  0.00  0.00  0.00  0.00  0.00
  WS02006245WS02006243    1.00   0.02  0.00  0.00  0.92  0.00  0.00  0.06  0.02  0.00
  WS02006243WS02006242    1.00   0.01  0.00  0.00  0.99  0.00  0.00  0.00  0.27  0.00
  WS02006242WS02006240    1.00   0.00  0.00  0.00  0.99  0.00  0.00  0.00  0.00  0.00
  WS02006240WS02006239    1.00   0.00  0.00  0.00  0.96  0.00  0.00  0.03  0.01  0.00
  WS02006239WS02006238    1.00   0.00  0.00  0.00  1.00  0.00  0.00  0.00  0.03  0.00
  WS02006238WS02006235    1.00   0.00  0.00  0.00  1.00  0.00  0.00  0.00  0.00  0.00
  WS02006235WS02006234    1.00   0.00  0.00  0.00  0.96  0.00  0.04  0.00  0.00  0.00
  WS02006234WS02006232    1.00   0.00  0.00  0.00  1.00  0.00  0.00  0.00  0.07  0.00
  WS02006232WS02006231    1.00   0.00  0.00  0.00  0.99  0.00  0.01  0.00  0.00  0.00
  WS02006231WS02006230    1.00   0.00  0.00  0.00  0.35  0.00  0.65  0.00  0.00  0.00
  WS02006230WS02006229    1.00   0.00  0.00  0.00  0.98  0.00  0.00  0.02  0.01  0.00
  WS02006228WS02006109    1.00   0.00  0.00  0.00  1.00  0.00  0.00  0.00  0.00  0.00
  WS02006116WS02004401    1.00   0.03  0.00  0.00  0.97  0.00  0.00  0.00  0.00  0.00
  WS02006115WS02006116    1.00   0.03  0.00  0.00  0.96  0.00  0.00  0.01  0.00  0.00
  WS02006113WS02006111    1.00   0.02  0.00  0.00  0.04  0.94  0.00  0.00  0.16  0.00
  WS02006112WS02006115    1.00   0.03  0.00  0.00  0.97  0.00  0.00  0.00  0.00  0.00
  WS02006111WS02006112    1.00   0.03  0.00  0.00  0.97  0.00  0.00  0.00  0.91  0.00
  WS02006110WS02006113    1.00   0.01  0.01  0.00  0.98  0.00  0.00  0.00  0.00  0.00
  WS02006109WS02006110    1.00   0.00  0.01  0.00  0.98  0.00  0.01  0.00  0.00  0.00
  WS02004411WS02004412    1.00   0.05  0.00  0.00  0.95  0.00  0.00  0.00  0.00  0.00
  WS02004401WS02004402    1.00   0.03  0.00  0.00  0.97  0.00  0.00  0.00  0.00  0.00
  WS02004413WS02003067    1.00   0.05  0.02  0.00  0.00  0.00  0.93  0.00  0.00  0.00
  WS02004412WS02004413    1.00   0.05  0.00  0.00  0.95  0.00  0.00  0.00  0.03  0.00
  WS02004410WS02004411    1.00   0.05  0.00  0.00  0.95  0.00  0.00  0.00  0.04  0.00
  WS02004409WS02004410    1.00   0.05  0.00  0.00  0.95  0.00  0.00  0.00  0.02  0.00
  WS02004407WS02004409    1.00   0.05  0.00  0.00  0.95  0.00  0.00  0.00  0.89  0.00
  WS02004406WS02004407    1.00   0.00  0.04  0.00  0.95  0.00  0.00  0.00  0.00  0.00
  WS02004405WS02004406    1.00   0.00  0.00  0.00  1.00  0.00  0.00  0.00  0.01  0.00
  WS02004404WS02004405    1.00   0.00  0.00  0.00  1.00  0.00  0.00  0.00  0.00  0.00
  WS02004403WS02004404    1.00   0.00  0.03  0.00  0.97  0.00  0.00  0.00  0.01  0.00
  WS02004402WS02004403    1.00   0.03  0.00  0.00  0.97  0.00  0.00  0.00  0.00  0.00
  WS02004139WS02001211    1.00   0.00  0.00  0.00  0.99  0.00  0.01  0.00  0.00  0.00
  WS02004138WS02004139    1.00   0.00  0.00  0.00  0.99  0.01  0.00  0.00  1.00  0.00
  WS02003067WS02003066    1.00   0.07  0.01  0.00  0.93  0.00  0.00  0.00  0.00  0.00
  WS02001213WS02003059    1.00   0.00  0.01  0.00  0.99  0.00  0.00  0.00  0.00  0.00
  WS02001212WS02001213    1.00   0.01  0.00  0.00  0.60  0.00  0.39  0.00  0.00  0.00
  WS02001211WS02001212    1.00   0.00  0.01  0.00  0.99  0.00  0.00  0.00  0.00  0.00
  WS02003072WS02003073    1.00   0.00  0.00  0.00  0.00  0.00  0.00  1.00  0.00  0.00
  WS02003069WS02003072    1.00   0.00  0.00  0.00  0.99  0.01  0.00  0.00  0.62  0.00
  WS02003060WS02003069    1.00   0.00  0.00  0.00  0.97  0.03  0.00  0.00  0.36  0.00
  WS02003059WS02003060    1.00   0.00  0.00  0.00  0.99  0.01  0.00  0.00  0.02  0.00
  HS02004901HS02004770    1.00   0.05  0.00  0.00  0.95  0.00  0.00  0.00  0.00  0.00
  HS02004876HS02004881    1.00   0.03  0.00  0.00  0.85  0.12  0.00  0.00  0.00  0.00
  HS02004870HS02004876    1.00   0.01  0.00  0.00  0.99  0.00  0.00  0.00  0.95  0.00
  HS02004842HS02004848    1.00   0.00  0.05  0.00  0.95  0.00  0.00  0.00  0.57  0.00
  HS02004837HS02004842    1.00   0.00  0.00  0.00  0.99  0.01  0.00  0.00  0.11  0.00
  HS02004830HS02004837    1.00   0.00  0.00  0.00  1.00  0.00  0.00  0.00  0.99  0.00
  HS02004824HS02004830    1.00   0.00  0.00  0.00  1.00  0.00  0.00  0.00  0.03  0.00
  HS02004817HS02004824    1.00   0.00  0.00  0.00  1.00  0.00  0.00  0.00  0.94  0.00
  HS02004770HS02004777    1.00   0.00  0.05  0.00  0.95  0.00  0.00  0.00  0.03  0.00
  HS02004799HS02004480    1.00   0.00  0.03  0.00  0.94  0.00  0.03  0.00  0.00  0.00
  HS02004792HS02004799    1.00   0.00  0.00  0.00  0.98  0.02  0.00  0.00  0.98  0.00
  HS02004788HS02004792    1.00   0.00  0.00  0.00  0.99  0.01  0.00  0.00  0.98  0.00
  HS02004785HS02004788    1.00   0.00  0.00  0.00  1.00  0.00  0.00  0.00  0.00  0.00
  HS02004777HS02004785    1.00   0.00  0.00  0.00  1.00  0.00  0.00  0.00  0.13  0.00
  HS02004480HS02004478    1.00   0.05  0.00  0.00  0.67  0.00  0.00  0.27  0.00  0.00
  HS02004479HS02004480    1.00   0.03  0.00  0.00  0.97  0.00  0.00  0.00  0.12  0.00
  HS02004862HS02004870    1.00   0.00  0.00  0.00  1.00  0.00  0.00  0.00  0.04  0.00
  HS02004848HS02004852    1.00   0.05  0.00  0.00  0.95  0.00  0.00  0.00  0.78  0.00
  HS02004856HS02004862    1.00   0.00  0.06  0.00  0.94  0.00  0.00  0.00  0.82  0.00
  HS02004852HS02004856    1.00   0.05  0.00  0.00  0.95  0.00  0.00  0.00  0.77  0.00
  HS02004802HS02004478    1.00   0.05  0.00  0.00  0.95  0.00  0.00  0.00  0.03  0.00
  HS02004478WS02006287    1.00   0.06  0.00  0.00  0.74  0.20  0.00  0.00  0.62  0.00
  HS02004817HS02004807    1.00   0.00  0.05  0.00  0.95  0.00  0.00  0.00  0.01  0.00
  HS02004807HS02004802    1.00   0.05  0.00  0.00  0.95  0.00  0.00  0.00  0.00  0.00
  YS02001759YS02001757    1.00   0.00  0.00  0.00  1.00  0.00  0.00  0.00  0.16  0.00
  YS02001762YS02001759    1.00   0.00  0.00  0.00  1.00  0.00  0.00  0.00  0.03  0.00
  YS02001765YS02001762    1.00   0.00  0.00  0.00  1.00  0.00  0.00  0.00  0.14  0.00
  YS02001770YS02001767    1.00   0.00  0.00  0.00  1.00  0.00  0.00  0.00  0.00  0.00
  YS02001774YS02001770    1.00   0.00  0.05  0.00  0.95  0.00  0.00  0.00  0.03  0.00
  YS02001779YS02001774    1.00   0.00  0.00  0.00  1.00  0.00  0.00  0.00  0.18  0.00
  YS02001649YS02001757    1.00   0.00  0.00  0.00  1.00  0.00  0.00  0.00  0.16  0.00
  YS02001767YS02001765    1.00   0.00  0.00  0.00  1.00  0.00  0.00  0.00  0.00  0.00
  YS02006561YS02001783    1.00   0.06  0.00  0.00  0.77  0.17  0.00  0.00  0.51  0.00
  YS02001783YS02001784    1.00   0.00  0.06  0.00  0.94  0.00  0.00  0.00  0.00  0.00
  YS02001784YS02001785    1.00   0.00  0.00  0.00  1.00  0.00  0.00  0.00  0.18  0.00
  YS02001788YS02001790    1.00   0.00  0.00  0.00  0.88  0.12  0.00  0.00  0.28  0.00
  YS02001790YS02001791    1.00   0.00  0.00  0.00  0.87  0.13  0.00  0.00  0.07  0.00
  YS02001791YS02001793    1.00   0.00  0.00  0.00  0.90  0.10  0.00  0.00  0.03  0.00
  YS02001910YS02001907    1.00   0.00  0.00  0.00  0.97  0.00  0.00  0.03  0.12  0.00
  YS02001786YS02001788    1.00   0.00  0.00  0.00  0.85  0.15  0.00  0.00  0.00  0.00
  YS02001915YS02001910    1.00   0.00  0.00  0.00  0.98  0.02  0.00  0.00  0.16  0.00
  YS02001918YS02001915    1.00   0.00  0.01  0.00  0.98  0.02  0.00  0.00  0.52  0.00
  YS02001923YS02001920    1.00   0.00  0.00  0.00  1.00  0.00  0.00  0.00  0.74  0.00
  YS02001926YS02001923    1.00   0.00  0.04  0.00  0.24  0.00  0.72  0.00  0.00  0.00
  YS02001929YS02001926    1.00   0.00  0.05  0.00  0.95  0.00  0.00  0.00  0.66  0.00
  YS02001920YS02001918    1.00   0.00  0.01  0.00  0.99  0.00  0.00  0.00  0.00  0.00
  YS02001629YS02163301    1.00   0.06  0.00  0.00  0.94  0.00  0.00  0.00  0.00  0.00
  YS02001619YS02001622    1.00   0.05  0.00  0.00  0.95  0.00  0.00  0.00  0.00  0.00
  YS02001622YS02001625    1.00   0.05  0.00  0.00  0.95  0.00  0.00  0.00  0.05  0.00
  YS02001625YS02001629    1.00   0.05  0.01  0.00  0.93  0.00  0.01  0.00  0.00  0.00
  YS02163301YS02001633    1.00   0.00  0.06  0.00  0.94  0.00  0.00  0.00  0.00  0.00
  YS02163601YS02164001    1.00   0.00  0.04  0.00  0.96  0.00  0.00  0.00  0.00  0.00
  YS02164001YS02001641    1.00   0.01  0.03  0.00  0.96  0.00  0.00  0.00  0.06  0.00
  YS02001641YS02001644    1.00   0.00  0.01  0.00  0.99  0.00  0.00  0.00  0.00  0.00
  YS02001647YS02001649    1.00   0.00  0.06  0.00  0.94  0.00  0.00  0.00  0.01  0.00
  YS02006553YS02006556    1.00   0.02  0.00  0.00  0.98  0.00  0.00  0.00  0.03  0.00
  YS02006556YS02006558    1.00   0.00  0.00  0.00  1.00  0.00  0.00  0.00  0.00  0.00
  YSB6556YSB1171          1.00   0.03  0.02  0.00  0.95  0.00  0.00  0.00  0.00  0.00
  YS02001907YS02006553    1.00   0.00  0.03  0.00  0.97  0.00  0.00  0.00  0.00  0.00
  YS02006558YS02006561    1.00   0.06  0.00  0.00  0.28  0.66  0.00  0.00  0.43  0.00
  YS02001633YS02163601    1.00   0.00  0.01  0.00  0.99  0.00  0.00  0.00  0.15  0.00
  YS02001644YS02001647    1.00   0.00  0.06  0.00  0.94  0.00  0.00  0.00  0.00  0.00
  YS02001745YS02001748    1.00   0.00  0.00  0.00  0.91  0.00  0.00  0.08  0.01  0.00
  YS02001748YS02001751    1.00   0.00  0.00  0.00  0.98  0.02  0.00  0.00  0.14  0.00
  YS02001751YS02001754    1.00   0.00  0.00  0.00  0.93  0.00  0.00  0.07  0.01  0.00
  YS02001754YS02001757    1.00   0.00  0.00  0.00  0.99  0.01  0.00  0.00  0.18  0.00
  YS02001882YS02001884    1.00   0.06  0.00  0.00  0.94  0.00  0.00  0.00  0.00  0.00
  YS02001884YS02001887    1.00   0.04  0.01  0.00  0.95  0.00  0.00  0.00  0.00  0.00
  YS02001890YS02001895    1.00   0.00  0.06  0.00  0.94  0.00  0.00  0.00  0.00  0.00
  YS02001895YS02001898    1.00   0.06  0.00  0.00  0.93  0.00  0.01  0.00  0.00  0.00
  YS02001898YS02001901    1.00   0.06  0.00  0.00  0.94  0.00  0.00  0.00  0.01  0.00
  YS02001901YS02001904    1.00   0.06  0.00  0.00  0.94  0.00  0.00  0.00  0.00  0.00
  YS02001904YS02001907    1.00   0.00  0.06  0.00  0.94  0.00  0.00  0.00  0.00  0.00
  YS02001887YS02001890    1.00   0.00  0.00  0.00  0.97  0.00  0.03  0.00  0.00  0.00
  YS02001652YS02001649    1.00   0.00  0.00  0.00  1.00  0.00  0.00  0.00  0.16  0.00
  YS02001655YS02001652    1.00   0.00  0.00  0.00  0.93  0.00  0.00  0.07  0.01  0.00
  YS02001658YS02001655    1.00   0.00  0.05  0.00  0.93  0.02  0.00  0.00  0.02  0.00
  YS02001661YS02001658    1.00   0.05  0.00  0.00  0.91  0.03  0.00  0.00  0.00  0.00
  YS02001664YS02001661    1.00   0.05  0.00  0.00  0.92  0.03  0.00  0.00  0.11  0.00
  YSB1154YSB6556          1.00   0.05  0.00  0.00  0.95  0.00  0.00  0.00  0.02  0.00
  YSB1174YSB1171          1.00   0.03  0.01  0.00  0.96  0.00  0.00  0.00  0.00  0.00
  YSB1171HS02004479       1.00   0.03  0.00  0.00  0.96  0.00  0.00  0.00  0.11  0.00
  HS02004881HS02006253    1.00   0.04  0.00  0.00  0.48  0.09  0.00  0.39  0.42  0.00
  YS02001793JiankangQianchi    1.00   0.00  0.00  0.00  0.95  0.05  0.00  0.00  0.06  0.00
  YS02001757CaochengTiaoxuchi    1.00   0.00  0.07  0.00  0.88  0.04  0.00  0.00  0.00  0.00
  WSF200WS02003060        1.00   0.00  0.07  0.00  0.14  0.79  0.00  0.00  0.19  0.00
  1                       1.00   0.00  0.00  0.00  0.00  1.00  0.00  0.00  0.28  0.00
  2                       1.00   0.91  0.00  0.00  0.00  0.09  0.00  0.00  0.02  0.00
  3                       1.00   0.55  0.00  0.00  0.00  0.45  0.00  0.00  0.43  0.00
  4                       1.00   1.00  0.00  0.00  0.00  0.00  0.00  0.00  0.00  0.00
  
  
  *************************
  Conduit Surcharge Summary
  *************************
  
  ----------------------------------------------------------------------------
                                                           Hours        Hours 
                         --------- Hours Full --------   Above Full   Capacity
  Conduit                Both Ends  Upstream  Dnstream   Normal Flow   Limited
  ----------------------------------------------------------------------------
  WS02006229WS02006228        0.88      0.93      0.88      2.42         0.88
  WS02006256WS02006235        5.29      5.29      6.99      1.93         0.01
  WS02006252WS02006251        0.28      0.28      0.49      0.43         0.01
  WS02006251WS02006249        0.01      0.01      0.01      0.26         0.01
  WS02006249WS02006248        0.01      0.01      0.01      2.22         0.01
  WS02006248WS02006247        0.01      0.01      0.01      0.01         0.01
  WS02006247WS02006245        0.01      0.01      0.01      3.24         0.01
  WS02006245WS02006243        0.01      0.01      0.11      0.12         0.01
  WS02006243WS02006242        0.13      0.13      0.42      0.01         0.01
  WS02006242WS02006240        0.40      0.40      0.49      0.42         0.01
  WS02006240WS02006239        0.42      0.42      0.47      0.16         0.01
  WS02006239WS02006238        0.50      0.50      0.53      0.15         0.01
  WS02006238WS02006235        0.53      0.53      0.66      0.01         0.01
  WS02006235WS02006234        0.51      0.51      0.52      4.93         0.04
  WS02006234WS02006232        0.53      0.53      0.74      0.01         0.01
  WS02006232WS02006231        0.52      0.52      0.74      0.01         0.01
  WS02006231WS02006230        0.52      0.52      0.54      5.36         0.03
  WS02006230WS02006229        1.46      1.92      1.46      6.20         1.33
  WS02006228WS02006109        0.89      1.28      0.89      3.91         0.89
  WS02006116WS02004401        0.41      0.41      0.43      0.34         0.32
  WS02006115WS02006116        0.20      0.20      0.21      0.10         0.09
  WS02006112WS02006115        0.16      0.16      0.72      0.01         0.01
  WS02006111WS02006112        0.01      0.01      2.70      0.01         0.01
  WS02006110WS02006113        0.01      0.01      1.11      0.01         0.01
  WS02006109WS02006110        0.65      0.65      1.28      0.66         0.01
  WS02004411WS02004412        0.01      0.01      0.01      0.39         0.01
  WS02004401WS02004402        0.43      0.43      0.46      0.01         0.01
  WS02004410WS02004411        0.01      0.01      0.01      0.31         0.01
  WS02004409WS02004410        0.01      0.01      0.01      0.11         0.01
  WS02004406WS02004407        0.01      0.01      0.53      0.01         0.01
  WS02004405WS02004406        0.53      0.55      0.53      0.70         0.53
  WS02004404WS02004405        0.55      0.57      0.55      6.14         0.55
  WS02004403WS02004404        0.47      0.47      0.57      0.01         0.01
  WS02004402WS02004403        0.46      0.46      0.47      0.40         0.39
  WS02003072WS02003073        0.01      0.01      0.01      0.98         0.01
  HS02004876HS02004881        0.01      0.01      0.01      0.49         0.01
  HS02004785HS02004788        0.01      0.01      0.01      0.35         0.01
  HS02004480HS02004478        0.01      0.01      0.01      0.79         0.01
  YS02001759YS02001757        6.09      6.09      6.12      0.01         0.01
  YS02001762YS02001759        6.09      6.09      6.09      0.01         0.01
  YS02001765YS02001762        6.08      6.08      6.09      0.01         0.01
  YS02001770YS02001767        6.07      6.07      6.07      0.91         0.67
  YS02001774YS02001770        6.07      6.07      6.08      0.01         0.01
  YS02001779YS02001774        6.04      6.04      6.08      0.01         0.01
  YS02001649YS02001757        6.08      6.08      6.12      0.01         0.01
  YS02001767YS02001765        6.07      6.07      6.08      0.01         0.01
  YS02006561YS02001783        1.66      1.66      2.13      0.01         0.01
  YS02001783YS02001784        2.13      2.13      2.21      2.02         1.99
  YS02001784YS02001785        2.14      2.21      2.14      2.74         2.14
  YS02001788YS02001790        2.13      2.13      4.98      0.01         0.01
  YS02001790YS02001791        4.98      4.98      5.15      1.51         1.51
  YS02001791YS02001793        5.14      5.14      5.79      0.01         0.01
  YS02001910YS02001907        1.95      1.95      2.26      0.01         0.01
  YS02001786YS02001788        2.13      2.14      2.13      2.41         2.13
  YS02001915YS02001910        1.77      1.77      1.95      0.01         0.01
  YS02001918YS02001915        1.55      1.55      1.77      0.01         0.01
  YS02001923YS02001920        1.36      1.36      1.58      0.01         0.01
  YS02001926YS02001923        0.01      0.01      0.01      0.01         0.01
  YS02001929YS02001926        0.01      0.01      0.01      0.01         0.01
  YS02001920YS02001918        1.55      1.55      1.58      0.01         0.01
  YS02001629YS02163301        6.06      6.06      6.07      0.01         0.01
  YS02001619YS02001622        6.02      6.02      6.02      0.01         0.01
  YS02001622YS02001625        6.02      6.02      6.05      0.01         0.01
  YS02001625YS02001629        6.02      6.02      6.05      0.01         0.01
  YS02163301YS02001633        6.07      6.07      6.08      0.01         0.01
  YS02163601YS02164001        6.08      6.08      6.09      0.01         0.01
  YS02164001YS02001641        6.08      6.08      6.08      0.01         0.02
  YS02001641YS02001644        6.08      6.08      6.08      2.21         2.29
  YS02001647YS02001649        6.05      6.05      6.08      0.01         0.01
  YS02006553YS02006556        2.12      2.12      2.32      0.01         0.01
  YS02006556YS02006558        2.18      2.18      2.38      0.01         0.01
  YSB6556YSB1171              0.01      0.01      0.14      0.01         0.01
  YS02001907YS02006553        2.76      2.76      2.96      0.01         0.01
  YS02006558YS02006561        1.86      2.09      1.86      2.63         1.86
  YS02001633YS02163601        6.08      6.08      6.09      0.01         0.01
  YS02001644YS02001647        6.05      6.05      6.08      0.01         0.01
  YS02001745YS02001748        0.01      0.01      5.99      0.01         0.01
  YS02001748YS02001751        6.00      6.00      6.02      0.01         0.01
  YS02001751YS02001754        6.02      6.02      6.05      0.01         0.01
  YS02001754YS02001757        6.05      6.05      6.12      0.01         0.01
  YS02001882YS02001884        1.78      1.78      1.81      0.01         0.01
  YS02001884YS02001887        1.85      1.85      1.88      0.01         0.01
  YS02001890YS02001895        1.75      1.75      1.96      0.01         0.01
  YS02001895YS02001898        1.74      1.74      1.75      0.01         0.01
  YS02001898YS02001901        1.76      1.76      1.85      0.01         0.01
  YS02001901YS02001904        1.83      1.83      1.85      0.01         0.01
  YS02001904YS02001907        1.83      1.83      2.35      0.01         0.01
  YS02001887YS02001890        1.90      1.90      1.93      0.20         0.01
  YS02001652YS02001649        6.06      6.06      6.08      0.01         0.01
  YS02001655YS02001652        6.02      6.02      6.05      0.01         0.01
  YS02001658YS02001655        5.99      5.99      6.02      0.01         0.01
  YS02001661YS02001658        0.12      0.12      5.99      0.01         0.01
  YS02001664YS02001661        0.01      0.01      1.85      0.01         0.01
  YS02001793JiankangQianchi        5.57      5.57      6.23      0.01         0.01
  YS02001757CaochengTiaoxuchi        5.63      5.63      6.12      0.01         0.01
  
  
  ***************
  Pumping Summary
  ***************
  
  ---------------------------------------------------------------------------------------------------------
                                                  Min       Avg       Max     Total     Power    % Time Off
                        Percent   Number of      Flow      Flow      Flow    Volume     Usage    Pump Curve
  Pump                 Utilized   Start-Ups       LPS       LPS       LPS  10^6 ltr     Kw-hr    Low   High
  ---------------------------------------------------------------------------------------------------------
  CC-Pump-1               34.04           6      0.00    122.94    200.00     1.140      1.25    0.0    9.6
  CC-Pump-2               40.43           6      0.00    133.37    200.00     1.500      1.05    0.0    0.0
  JK-Pump-1               23.40           5      0.00    165.56    300.00     0.902      3.65    0.0    0.0
  JK-Pump-2               38.29           8      0.00    164.42    300.00     1.289      8.33    0.0    0.0
  XR-Pump-1               55.30          10      0.00     56.10     95.00     0.883      3.94    0.0    0.0
  XR-Pump-2               12.76           3      0.00     47.39     94.99     0.171      0.76    0.0    0.0
  XR-Pump-3                4.26           1      0.00     47.50     94.82     0.057      0.25    0.0    0.0
  XR-Pump-4               51.06           9      0.00     56.33     95.00     0.827      4.45    0.0    0.0
  

  Analysis begun on:  Thu Jan  6 18:39:38 2022
  Analysis ended on:  Thu Jan  6 18:39:40 2022
  Total elapsed time: 00:00:02