
  EPA STORM WATER MANAGEMENT MODEL - VERSION 5.1 (Build 5.3.0.dev0)
  --------------------------------------------------------------

  WARNING 04: minimum elevation drop used for Conduit WS02004404WS02004405
  WARNING 03: negative offset ignored for Link YS02001904YS02001907
  
  *********************************************************
  NOTE: The summary statistics displayed in this report are
  based on results found at every computational time step,  
  not just on results from each reporting time step.
  *********************************************************
  
  ****************
  Analysis Options
  ****************
  Flow Units ............... LPS
  Process Models:
    Rainfall/Runoff ........ YES
    RDII ................... NO
    Snowmelt ............... NO
    Groundwater ............ NO
    Flow Routing ........... YES
    Ponding Allowed ........ NO
    Water Quality .......... NO
  Infiltration Method ...... HORTON
  Flow Routing Method ...... DYNWAVE
  Surcharge Method ......... EXTRAN
  Starting Date ............ 08/28/2015 08:00:00
  Ending Date .............. 08/28/2015 15:50:00
  Antecedent Dry Days ...... 8.0
  Report Time Step ......... 00:01:00
  Wet Time Step ............ 00:01:00
  Dry Time Step ............ 00:01:00
  Routing Time Step ........ 5.00 sec
  Variable Time Step ....... YES
  Maximum Trials ........... 8
  Number of Threads ........ 4
  Head Tolerance ........... 0.001500 m
  
  
  **************************        Volume         Depth
  Runoff Quantity Continuity     hectare-m            mm
  **************************     ---------       -------
  Total Precipitation ......         7.641        16.729
  Evaporation Loss .........         0.000         0.000
  Infiltration Loss ........         1.880         4.117
  Surface Runoff ...........         4.668        10.221
  Final Storage ............         1.093         2.393
  Continuity Error (%) .....        -0.013
  
  
  **************************        Volume        Volume
  Flow Routing Continuity        hectare-m      10^6 ltr
  **************************     ---------     ---------
  Dry Weather Inflow .......         0.616         6.165
  Wet Weather Inflow .......         4.667        46.672
  Groundwater Inflow .......         0.000         0.000
  RDII Inflow ..............         0.000         0.000
  External Inflow ..........         0.102         1.024
  External Outflow .........         1.042        10.416
  Flooding Loss ............         3.797        37.968
  Evaporation Loss .........         0.000         0.000
  Exfiltration Loss ........         0.000         0.000
  Initial Stored Volume ....         0.076         0.761
  Final Stored Volume ......         0.627         6.274
  Continuity Error (%) .....        -0.068
  
  
  *************************
  Highest Continuity Errors
  *************************
  Node HS02004842 (12.71%)
  Node YS02001884 (10.34%)
  Node HS02004817 (2.32%)
  Node YSB1171 (2.18%)
  Node YS02163301 (1.65%)
  
  
  ***************************
  Time-Step Critical Elements
  ***************************
  Link 3 (46.81%)
  Link WS02006252WS02006251 (39.30%)
  Link WS02006280WS02006229 (3.51%)
  Link WS02006238WS02006235 (2.63%)
  Link YS02006556YS02006558 (1.82%)
  
  
  ********************************
  Highest Flow Instability Indexes
  ********************************
  Link WS02006113WS02006111 (42)
  Link YS02163601YS02164001 (31)
  Link YS02163301YS02001633 (30)
  Link YS02164001YS02001641 (29)
  Link YS02001629YS02163301 (29)
  
  
  *************************
  Routing Time Step Summary
  *************************
  Minimum Time Step           :     0.50 sec
  Average Time Step           :     1.08 sec
  Maximum Time Step           :     5.00 sec
  Percent in Steady State     :    -0.00
  Average Iterations per Step :     3.75
  Percent Not Converging      :    14.10
  
  
  ***************************
  Subcatchment Runoff Summary
  ***************************
  
  ------------------------------------------------------------------------------------------------------------------------------
                            Total      Total      Total      Total     Imperv       Perv      Total       Total     Peak  Runoff
                           Precip      Runon       Evap      Infil     Runoff     Runoff     Runoff      Runoff   Runoff   Coeff
  Subcatchment                 mm         mm         mm         mm         mm         mm         mm    10^6 ltr      LPS
  ------------------------------------------------------------------------------------------------------------------------------
  sub0                      16.73       0.00       0.00       0.97      14.29       0.20      14.50        0.01     3.66   0.867
  sub1                      16.73       0.00       0.00       1.58      13.63       0.26      13.89        0.09    24.51   0.830
  sub2                      16.73       0.00       0.00       5.80       9.63       0.39      10.02        0.09    22.91   0.599
  sub3                      16.73       0.00       0.00       5.88       9.59       0.31       9.90        0.22    50.49   0.592
  sub4                      16.73       0.00       0.00       1.65      13.47       0.19      13.66        0.28    60.01   0.817
  sub5                      16.73       0.00       0.00       0.99      14.24       0.18      14.42        0.16    43.61   0.862
  sub7                      16.73       0.00       0.00       1.26      13.97       0.24      14.21        0.05    13.82   0.849
  sub8                      16.73       0.00       0.00       1.27      13.96       0.23      14.19        0.09    25.44   0.848
  sub9                      16.73       0.00       0.00       1.27      13.96       0.23      14.19        0.07    19.02   0.848
  sub10                     16.73       0.00       0.00       1.13      14.10       0.21      14.30        0.16    42.73   0.855
  sub11                     16.73       0.00       0.00       1.12      14.11       0.21      14.33        0.17    47.25   0.857
  sub12                     16.73       0.00       0.00       1.83      13.37       0.35      13.71        0.12    35.87   0.820
  sub14                     16.73       0.00       0.00       1.27      13.95       0.23      14.19        0.14    37.43   0.848
  sub15                     16.73       0.00       0.00       4.53      10.73       0.49      11.22        0.19    51.47   0.671
  sub16                     16.73       0.00       0.00       4.88      10.29       0.64      10.93        0.11    32.57   0.653
  sub17                     16.73       0.00       0.00       4.74      10.44       0.61      11.05        0.09    26.81   0.661
  sub22                     16.73       0.00       0.00       6.60       8.75       0.59       9.34        0.59   160.16   0.558
  sub23                     16.73       0.00       0.00       5.59       9.67       0.60      10.27        0.49   134.74   0.614
  sub60                     16.73       0.00       0.00       1.94      11.65       0.06      11.71        3.55   386.89   0.700
  sub61                     16.73       0.00       0.00       2.75      11.65       0.09      11.73        3.62   476.87   0.701
  sub62                     16.73       0.00       0.00       1.26      12.72       0.07      12.79        3.93   491.27   0.765
  sub63                     16.73       0.00       0.00       4.75      10.14       0.10      10.23        3.10   437.54   0.612
  sub64                     16.73       0.00       0.00       2.45      11.19       0.06      11.26        3.42   367.58   0.673
  sub65                     16.73       0.00       0.00       2.11      11.40       0.06      11.46        3.52   372.98   0.685
  sub66                     16.73       0.00       0.00       4.79       9.55       0.06       9.61        2.95   336.52   0.575
  sub67                     16.73       0.00       0.00       1.24      13.25       0.09      13.35        4.12   605.48   0.798
  sub68                     16.73       0.00       0.00       2.25      12.20       0.10      12.30        3.78   521.64   0.735
  sub69                     16.73       0.00       0.00       2.37      12.50       0.14      12.64        2.95   482.20   0.755
  sub70                     16.73      12.90       0.00       8.98      17.16       1.09      18.25        4.18   460.88   0.616
  sub71                     16.73       0.00       0.00       1.27      12.46       0.07      12.53        2.96   345.19   0.749
  sub72                     16.73       0.00       0.00       1.14      10.39       0.03      10.43        2.12   185.81   0.623
  sub73                     16.73      17.77       0.00       9.78      19.72       1.38      21.10        4.96   482.28   0.612
  sub74                     16.73       0.00       0.00      12.48       3.71       0.07       3.78        1.51   261.10   0.226
  
  
  ******************
  Node Depth Summary
  ******************
  
  ---------------------------------------------------------------------------------
                                 Average  Maximum  Maximum  Time of Max    Reported
                                   Depth    Depth      HGL   Occurrence   Max Depth
  Node                 Type       Meters   Meters   Meters  days hr:min      Meters
  ---------------------------------------------------------------------------------
  WS02001211           JUNCTION     0.48     0.68     5.52     0  02:01        0.68
  WS02001212           JUNCTION     0.24     0.43     5.50     0  02:01        0.43
  WS02001213           JUNCTION     0.47     0.72     5.48     0  02:01        0.72
  WS02003069           JUNCTION     0.32     0.60     5.19     0  02:03        0.60
  WS02003072           JUNCTION     0.38     0.66     5.03     0  02:03        0.66
  WS02003073           JUNCTION     0.22     0.41     4.47     0  02:04        0.41
  WS02003060           JUNCTION     0.29     0.53     5.46     0  02:02        0.53
  WS02003066           JUNCTION     0.20     0.36     5.91     0  01:58        0.36
  WS02003059           JUNCTION     0.54     0.79     5.48     0  02:02        0.79
  WS02003067           JUNCTION     0.51     0.79     6.11     0  01:57        0.79
  WS02004401           JUNCTION     0.61     1.11     7.11     0  01:53        1.11
  WS02004402           JUNCTION     0.64     1.12     7.08     0  01:53        1.12
  WS02004403           JUNCTION     0.67     1.11     7.04     0  01:54        1.11
  WS02004404           JUNCTION     0.74     1.16     7.01     0  01:54        1.16
  WS02004406           JUNCTION     0.74     1.11     6.94     0  01:54        1.10
  WS02004409           JUNCTION     0.42     0.85     6.62     0  01:57        0.85
  WS02004410           JUNCTION     0.44     0.85     6.57     0  01:57        0.85
  WS02004411           JUNCTION     0.46     0.85     6.53     0  01:57        0.85
  WS02004412           JUNCTION     0.48     0.83     6.47     0  01:57        0.83
  WS02004413           JUNCTION     0.63     0.97     6.44     0  01:57        0.97
  WS02004405           JUNCTION     0.73     1.14     6.99     0  01:54        1.14
  WS02006109           JUNCTION     0.69     1.26     7.88     0  01:55        1.26
  WS02006110           JUNCTION     0.68     1.11     7.70     0  01:55        1.11
  WS02006111           JUNCTION     0.21     0.61     7.32     0  01:54        0.61
  WS02006112           JUNCTION     0.78     1.39     7.27     0  01:55        1.38
  WS02006113           JUNCTION     0.29     0.61     7.51     0  01:54        0.61
  WS02006115           JUNCTION     0.51     1.07     7.21     0  01:54        1.07
  WS02006116           JUNCTION     0.59     1.13     7.17     0  01:53        1.12
  WS02006230           JUNCTION     0.64     1.37     8.12     0  01:54        1.37
  WS02006231           JUNCTION     0.42     1.01     8.13     0  01:54        1.00
  WS02006232           JUNCTION     0.53     1.10     8.14     0  01:53        1.09
  WS02006234           JUNCTION     0.43     1.00     8.16     0  01:49        0.98
  WS02006235           JUNCTION     0.45     1.00     8.17     0  01:49        0.97
  WS02006238           JUNCTION     0.47     1.03     8.17     0  01:49        1.00
  WS02006240           JUNCTION     0.35     0.95     8.24     0  01:49        0.87
  WS02006242           JUNCTION     0.39     1.12     8.39     0  01:49        0.91
  WS02006243           JUNCTION     0.26     1.22     8.64     0  01:49        0.78
  WS02006245           JUNCTION     0.24     0.77     8.26     0  01:51        0.73
  WS02006247           JUNCTION     0.25     0.75     8.25     0  01:51        0.72
  WS02006248           JUNCTION     0.21     0.65     8.24     0  01:51        0.64
  WS02006249           JUNCTION     0.24     0.64     8.24     0  01:52        0.64
  WS02006239           JUNCTION     0.42     0.99     8.20     0  01:49        0.95
  WS02006251           JUNCTION     0.22     0.63     8.30     0  01:51        0.62
  WS02006252           JUNCTION     0.17     0.35     8.59     0  02:20        0.35
  WS02006253           JUNCTION     0.25     0.67     8.31     0  01:51        0.66
  WS02006256           JUNCTION     0.92     1.19     8.13     0  04:10        1.19
  WS02004138           JUNCTION     0.07     0.14     7.39     0  06:50        0.14
  WS02004407           JUNCTION     0.19     0.37     6.68     0  01:55        0.37
  WS02006228           JUNCTION     0.69     1.38     8.03     0  01:54        1.37
  WS02006229           JUNCTION     0.67     1.41     8.11     0  01:54        1.41
  WS02006280           JUNCTION     0.09     0.25     8.52     0  01:55        0.25
  WS02006284           JUNCTION     0.39     0.64     9.04     0  01:55        0.64
  WS02006287           JUNCTION     0.13     0.38     9.33     0  01:54        0.38
  WSF200               JUNCTION     0.18     0.38     5.62     0  02:02        0.38
  HS02004901           JUNCTION     0.15     0.36    10.18     0  01:52        0.36
  HS02004881           JUNCTION     0.01     0.05     9.08     0  01:54        0.05
  HS02004876           JUNCTION     0.05     0.16     9.19     0  01:55        0.16
  HS02004870           JUNCTION     0.02     0.09     9.38     0  01:55        0.09
  HS02004862           JUNCTION     0.03     0.11     9.49     0  01:55        0.11
  HS02004856           JUNCTION     0.08     0.15     9.58     0  01:55        0.15
  HS02004852           JUNCTION     0.02     0.07     9.59     0  01:55        0.07
  HS02004848           JUNCTION     0.02     0.07     9.67     0  01:55        0.07
  HS02004842           JUNCTION     0.33     0.40     9.67     0  01:55        0.40
  HS02004837           JUNCTION     0.04     0.09     9.67     0  01:55        0.09
  HS02004830           JUNCTION     0.05     0.10     9.57     0  01:56        0.10
  HS02004824           JUNCTION     0.03     0.12     9.53     0  01:55        0.12
  HS02004817           JUNCTION     0.46     0.69     9.53     0  01:55        0.69
  HS02004807           JUNCTION     0.15     0.36     9.53     0  01:55        0.36
  HS02004802           JUNCTION     0.18     0.39     9.52     0  01:55        0.39
  HS02004799           JUNCTION     0.15     0.45     9.66     0  01:53        0.45
  HS02004792           JUNCTION     0.05     0.20     9.73     0  01:52        0.20
  HS02004788           JUNCTION     0.04     0.15    10.05     0  01:53        0.15
  HS02004785           JUNCTION     0.07     0.23    10.14     0  01:52        0.23
  HS02004777           JUNCTION     0.17     0.37    10.17     0  01:52        0.37
  HS02004770           JUNCTION     0.14     0.35    10.18     0  01:52        0.35
  HS02004480           JUNCTION     0.11     0.37     9.61     0  01:53        0.37
  HS02004479           JUNCTION     0.14     0.41     9.61     0  01:53        0.41
  HS02004478           JUNCTION     0.08     0.27     9.50     0  01:54        0.27
  YS02001745           JUNCTION     0.77     0.94     8.46     0  02:46        0.94
  YS02001748           JUNCTION     1.17     1.38     8.45     0  02:42        1.37
  YS02001751           JUNCTION     1.35     1.92     8.80     0  01:48        1.57
  YS02001754           JUNCTION     1.60     1.93     8.53     0  01:48        1.83
  YS02001762           JUNCTION     1.79     2.04     8.44     0  02:35        2.03
  YS02001765           JUNCTION     1.75     1.99     8.44     0  02:23        1.98
  YS02001767           JUNCTION     1.71     1.94     8.43     0  02:25        1.93
  YS02001770           JUNCTION     1.71     1.92     8.42     0  02:35        1.92
  YS02001774           JUNCTION     1.77     1.98     8.40     0  02:33        1.97
  YS02001779           JUNCTION     1.52     1.68     8.37     0  01:47        1.68
  YS02001882           JUNCTION     0.72     1.83     8.55     0  01:54        1.62
  YS02001884           JUNCTION     0.82     1.93     8.55     0  01:54        1.72
  YS02001759           JUNCTION     1.83     2.08     8.44     0  02:26        2.07
  YS02001887           JUNCTION     0.89     1.93     8.47     0  01:54        1.81
  YS02001890           JUNCTION     0.92     1.81     8.32     0  01:54        1.81
  YS02001898           JUNCTION     0.69     1.61     8.35     0  01:54        1.56
  YS02001901           JUNCTION     0.80     1.71     8.32     0  01:54        1.67
  YS02001904           JUNCTION     0.78     1.66     8.29     0  01:54        1.63
  YS02001907           JUNCTION     1.10     1.96     8.25     0  01:54        1.96
  YS02001910           JUNCTION     0.90     2.03     8.54     0  01:54        1.80
  YS02001915           JUNCTION     0.70     2.00     8.72     0  01:54        1.62
  YS02001918           JUNCTION     0.44     1.81     8.88     0  01:56        1.34
  YS02001619           JUNCTION     1.31     1.61     8.54     0  01:47        1.61
  YS02001629           JUNCTION     1.65     1.85     8.40     0  01:47        1.85
  YS02001641           JUNCTION     1.75     1.94     8.37     0  01:51        1.93
  YS02001644           JUNCTION     1.75     1.92     8.35     0  01:51        1.92
  YS02001652           JUNCTION     1.61     2.16     8.76     0  02:09        1.91
  YS02001655           JUNCTION     1.38     2.20     9.05     0  02:22        1.79
  YS02001920           JUNCTION     0.54     1.84     8.84     0  01:57        1.42
  YS02001923           JUNCTION     0.36     1.67     8.93     0  01:57        1.20
  YS02001926           JUNCTION     0.37     1.90     9.35     0  01:57        1.01
  YS02001929           JUNCTION     0.23     0.91     8.60     0  01:57        0.77
  YS02001658           JUNCTION     1.11     2.25     9.40     0  02:10        1.72
  YS02001661           JUNCTION     0.88     2.46     9.86     0  02:22        1.65
  YS02001664           JUNCTION     0.40     0.57     8.50     0  04:44        0.56
  YS02001622           JUNCTION     1.33     1.62     8.52     0  01:47        1.62
  YS02001633           JUNCTION     1.74     1.95     8.40     0  02:21        1.94
  YS02001649           JUNCTION     1.80     2.05     8.44     0  02:06        2.05
  YS02001757           JUNCTION     1.92     2.18     8.44     0  02:33        2.17
  YS02001895           JUNCTION     0.68     1.59     8.34     0  01:54        1.56
  YS02001625           JUNCTION     1.61     1.78     8.38     0  01:48        1.78
  YS02163301           JUNCTION     1.68     1.88     8.40     0  02:15        1.88
  YS02163601           JUNCTION     1.79     1.99     8.38     0  02:31        1.98
  YS02164001           JUNCTION     1.73     1.92     8.37     0  01:57        1.91
  YS02001647           JUNCTION     1.59     1.80     8.41     0  02:12        1.79
  YSB1154              JUNCTION     0.28     0.56     9.62     0  01:53        0.56
  YSB6556              JUNCTION     0.18     0.44     9.61     0  01:53        0.44
  YSB1174              JUNCTION     0.23     0.50     9.61     0  01:53        0.50
  YSB1171              JUNCTION     0.43     0.71     9.61     0  01:53        0.71
  YS02006553           JUNCTION     1.10     1.98     8.26     0  01:56        1.97
  YS02006561           JUNCTION     0.44     1.27     7.93     0  01:54        1.08
  YS02006556           JUNCTION     1.07     1.96     8.27     0  01:56        1.93
  YS02006558           JUNCTION     1.11     1.99     8.26     0  01:56        1.97
  YS02001783           JUNCTION     0.74     1.74     7.88     0  01:53        1.47
  YS02001784           JUNCTION     0.75     2.15     8.21     0  01:53        1.42
  YS02001786           JUNCTION     0.70     2.18     8.21     0  01:53        1.26
  YS02001788           JUNCTION     0.65     2.28     8.26     0  01:53        1.13
  YS02001790           JUNCTION     0.85     1.96     7.60     0  01:53        1.29
  YS02001791           JUNCTION     0.89     2.40     7.87     0  01:53        1.63
  YS02001793           JUNCTION     1.32     2.01     6.84     0  01:53        1.80
  WS02004139           JUNCTION     0.41     0.61     5.52     0  02:00        0.61
  WSC                  OUTFALL      0.22     0.41     1.08     0  02:04        0.41
  3                    OUTFALL      0.06     0.19     6.19     0  04:10        0.19
  4                    OUTFALL      0.01     0.14     7.14     0  01:52        0.14
  5                    OUTFALL      0.00     0.00     5.00     0  00:00        0.00
  JK-storage           STORAGE      4.77     5.80     6.60     0  01:53        5.80
  CC-storage           STORAGE      1.15     1.43     8.43     0  02:45        1.43
  XR-storage           STORAGE      7.63     7.72     5.72     0  00:44        7.72
  
  
  *******************
  Node Inflow Summary
  *******************
  
  -------------------------------------------------------------------------------------------------
                                  Maximum  Maximum                  Lateral       Total        Flow
                                  Lateral    Total  Time of Max      Inflow      Inflow     Balance
                                   Inflow   Inflow   Occurrence      Volume      Volume       Error
  Node                 Type           LPS      LPS  days hr:min    10^6 ltr    10^6 ltr     Percent
  -------------------------------------------------------------------------------------------------
  WS02001211           JUNCTION      7.35   197.20     0  07:00       0.207        2.06       0.543
  WS02001212           JUNCTION      0.00   196.79     0  07:00           0        2.05       0.184
  WS02001213           JUNCTION      0.00   196.64     0  07:01           0        2.04       0.592
  WS02003069           JUNCTION      0.32   997.30     0  02:02     0.00902        8.44       0.149
  WS02003072           JUNCTION      0.00   996.79     0  02:03           0        8.43       0.210
  WS02003073           JUNCTION      1.82   998.46     0  02:04      0.0514        8.46       0.210
  WS02003060           JUNCTION     16.53   997.20     0  02:02       0.466        8.46       0.144
  WS02003066           JUNCTION      0.00   806.67     0  01:58           0        5.98       0.053
  WS02003059           JUNCTION      0.00   196.83     0  07:01           0        2.05       1.176
  WS02003067           JUNCTION      0.00   806.59     0  01:58           0        5.98       0.118
  WS02004401           JUNCTION      0.00   809.98     0  01:55           0        6.16       0.271
  WS02004402           JUNCTION      0.00   810.05     0  01:55           0        6.14       0.262
  WS02004403           JUNCTION      0.00   809.97     0  01:55           0        6.13       0.243
  WS02004404           JUNCTION      0.16   810.23     0  01:55     0.00457        6.12       0.190
  WS02004406           JUNCTION      0.00   810.35     0  01:55           0        6.09       0.466
  WS02004409           JUNCTION      0.00   810.00     0  01:55           0        6.06       0.172
  WS02004410           JUNCTION      0.00   807.61     0  01:56           0        6.05       0.204
  WS02004411           JUNCTION      0.00   806.73     0  01:56           0        6.03       0.217
  WS02004412           JUNCTION      0.00   806.53     0  01:57           0        6.02       0.246
  WS02004413           JUNCTION      0.00   806.54     0  01:57           0        6.01       0.384
  WS02004405           JUNCTION      0.04   810.32     0  01:55     0.00107        6.11       0.285
  WS02006109           JUNCTION      1.23   785.50     0  01:53      0.0347        6.15       0.090
  WS02006110           JUNCTION      0.00   785.44     0  01:52           0        6.14       0.253
  WS02006111           JUNCTION      0.00   787.72     0  01:50           0        6.12       0.045
  WS02006112           JUNCTION     26.81   809.92     0  01:55      0.0948        6.21       0.389
  WS02006113           JUNCTION      0.00   785.40     0  01:52           0        6.13       0.108
  WS02006115           JUNCTION      0.00   809.81     0  01:55           0        6.19       0.226
  WS02006116           JUNCTION      0.00   810.22     0  01:55           0        6.18       0.223
  WS02006230           JUNCTION     10.28   296.54     0  02:58        0.29        3.47       0.313
  WS02006231           JUNCTION      0.00   286.68     0  02:57           0        3.19       0.233
  WS02006232           JUNCTION      0.00   286.73     0  02:57           0        3.19       0.393
  WS02006234           JUNCTION      0.00   287.05     0  02:57           0        3.19       0.136
  WS02006235           JUNCTION      0.00   287.42     0  02:57           0        3.33       0.233
  WS02006238           JUNCTION      0.00   267.24     0  03:00           0         1.8       0.264
  WS02006240           JUNCTION      0.00   262.80     0  03:01           0        1.74       0.343
  WS02006242           JUNCTION      0.00   260.66     0  03:01           0        1.71       0.353
  WS02006243           JUNCTION      0.00   257.72     0  02:30           0        1.69      -0.040
  WS02006245           JUNCTION      0.00   256.18     0  02:30           0        1.69       0.367
  WS02006247           JUNCTION      0.00   254.65     0  02:30           0        1.69       0.049
  WS02006248           JUNCTION      0.00   273.65     0  01:49           0        1.69      -0.190
  WS02006249           JUNCTION      0.00   353.56     0  01:51           0        1.86       0.293
  WS02006239           JUNCTION      0.00   265.52     0  03:00           0        1.77       0.155
  WS02006251           JUNCTION      0.08   353.40     0  01:51     0.00217        1.88      -0.040
  WS02006252           JUNCTION      0.00   200.00     0  01:50           0        1.32       0.010
  WS02006253           JUNCTION      3.66   142.87     0  01:54      0.0117       0.556      -0.022
  WS02006256           JUNCTION      0.00   599.91     0  04:10           0        3.39       0.104
  WS02004138           JUNCTION      0.00   190.00     0  06:50           0        1.85      -0.008
  WS02004407           JUNCTION      0.00   810.34     0  01:55           0        6.06       0.080
  WS02006228           JUNCTION      0.00   784.24     0  01:52           0        6.13       0.196
  WS02006229           JUNCTION      0.00   787.12     0  01:52           0        6.15       0.214
  WS02006280           JUNCTION      0.00   656.04     0  01:55           0         2.7       0.003
  WS02006284           JUNCTION      0.10   655.96     0  01:55      0.0027         2.7       0.038
  WS02006287           JUNCTION      0.00   655.81     0  01:54           0         2.7       0.027
  WSF200               JUNCTION      0.00   806.61     0  01:58           0        5.97       0.039
  HS02004901           JUNCTION     32.57    32.57     0  01:50       0.114       0.115       1.559
  HS02004881           JUNCTION     13.82   139.59     0  01:54      0.0479       0.529       0.049
  HS02004876           JUNCTION     24.51   126.37     0  01:54      0.0923       0.482       0.114
  HS02004870           JUNCTION     25.44   102.13     0  01:54      0.0907        0.39       0.028
  HS02004862           JUNCTION     23.11    77.53     0  01:55       0.099       0.299       0.058
  HS02004856           JUNCTION     19.02    54.51     0  01:55      0.0682       0.202       0.720
  HS02004852           JUNCTION      0.00    36.10     0  01:55           0       0.134       0.042
  HS02004848           JUNCTION     50.49    50.49     0  01:57       0.223       0.223       0.021
  HS02004842           JUNCTION      0.00    15.55     0  02:06           0       0.102      14.561
  HS02004837           JUNCTION     49.08    62.50     0  01:55       0.337       0.426       0.191
  HS02004830           JUNCTION      0.15    62.61     0  01:55     0.00423       0.416       0.298
  HS02004824           JUNCTION     60.06   122.20     0  01:58       0.286       0.702       0.077
  HS02004817           JUNCTION      0.60   124.03     0  01:59      0.0169       0.718       2.378
  HS02004807           JUNCTION     47.25   168.28     0  01:57       0.166       0.868       0.499
  HS02004802           JUNCTION      0.00   169.24     0  01:58           0       0.865       0.459
  HS02004799           JUNCTION     37.43   414.52     0  01:52       0.135        1.57       0.166
  HS02004792           JUNCTION    160.44   377.30     0  01:52       0.598        1.44       0.028
  HS02004788           JUNCTION     53.14   218.54     0  01:52        0.24       0.839       0.046
  HS02004785           JUNCTION      0.15   165.59     0  01:52     0.00423       0.601       0.083
  HS02004777           JUNCTION      0.03   165.80     0  01:51    0.000846       0.601       0.872
  HS02004770           JUNCTION    134.74   166.64     0  01:51        0.49       0.602       0.515
  HS02004480           JUNCTION      0.00   492.22     0  01:53           0        1.85       0.065
  HS02004479           JUNCTION      0.00    78.00     0  01:53           0       0.292       0.252
  HS02004478           JUNCTION      0.00   655.76     0  01:54           0         2.7       0.013
  YS02001745           JUNCTION    386.89   386.89     0  02:16        3.55        3.55       0.327
  YS02001748           JUNCTION      0.04   395.89     0  02:16     0.00127        3.54       0.646
  YS02001751           JUNCTION      0.01   395.76     0  02:16     0.00031        3.52       0.682
  YS02001754           JUNCTION      0.26   396.13     0  02:16     0.00733         3.5       0.701
  YS02001762           JUNCTION      0.00   435.62     0  02:03           0        2.33       0.907
  YS02001765           JUNCTION      0.00   435.61     0  02:03           0        2.33       1.049
  YS02001767           JUNCTION      0.54   435.75     0  02:03      0.0151        2.35       1.535
  YS02001770           JUNCTION    491.42   669.61     0  02:49        3.94        4.95       0.636
  YS02001774           JUNCTION      0.00   669.64     0  02:49           0         3.6       0.695
  YS02001779           JUNCTION      0.01   669.66     0  02:49    0.000141        3.57       0.433
  YS02001882           JUNCTION      0.00    19.72     0  01:53           0      0.0213      10.564
  YS02001884           JUNCTION      0.00    46.95     0  01:52           0      0.0562      11.532
  YS02001759           JUNCTION    476.91   868.77     0  02:04        3.62         4.9       0.464
  YS02001887           JUNCTION    605.93   606.12     0  02:16        4.13        4.16       0.197
  YS02001890           JUNCTION      0.00   606.39     0  02:15           0        4.11       0.219
  YS02001898           JUNCTION      0.00   517.36     0  02:24           0           4       0.059
  YS02001901           JUNCTION      0.00   517.30     0  02:24           0           4       0.172
  YS02001904           JUNCTION      0.00   517.29     0  02:24           0        3.99       0.146
  YS02001907           JUNCTION      0.00  1137.46     0  01:58           0        9.14       0.259
  YS02001910           JUNCTION      0.00   626.86     0  01:58           0        5.16       0.221
  YS02001915           JUNCTION    345.21   626.64     0  01:58        2.96        5.21       0.110
  YS02001918           JUNCTION      0.00   356.87     0  01:58           0        2.28       0.052
  YS02001619           JUNCTION    336.52   336.52     0  02:16        2.95        2.95       0.410
  YS02001629           JUNCTION      0.00   245.31     0  01:47           0        1.45       2.009
  YS02001641           JUNCTION      0.00   423.54     0  01:51           0        4.86       0.428
  YS02001644           JUNCTION    367.62  1479.22     0  02:48        3.42        14.2       0.186
  YS02001652           JUNCTION      0.00   477.56     0  02:16           0        3.04       0.760
  YS02001655           JUNCTION      0.15   477.22     0  02:16     0.00434        3.07       0.830
  YS02001920           JUNCTION      2.87   356.62     0  01:58      0.0809        2.27       0.123
  YS02001923           JUNCTION      0.04   303.68     0  01:58     0.00106        2.17       0.040
  YS02001926           JUNCTION      0.05   357.08     0  01:56     0.00147        2.14       0.148
  YS02001929           JUNCTION    185.81   194.72     0  01:56        2.12        2.13       0.032
  YS02001658           JUNCTION      0.00   489.78     0  02:14           0        3.09       0.782
  YS02001661           JUNCTION      0.00   774.55     0  02:05           0        3.32       0.144
  YS02001664           JUNCTION    437.54   437.54     0  02:16         3.1        3.33       0.185
  YS02001622           JUNCTION      0.00   336.76     0  02:16           0        2.94       1.099
  YS02001633           JUNCTION    373.18   423.60     0  01:51        3.53        4.93       0.651
  YS02001649           JUNCTION      0.00   991.68     0  01:58           0        7.64       0.482
  YS02001757           JUNCTION      0.00  2135.47     0  02:03           0         9.3       0.998
  YS02001895           JUNCTION      0.00   517.24     0  02:23           0           4       0.125
  YS02001625           JUNCTION      0.00   336.60     0  02:16           0        2.91       1.358
  YS02163301           JUNCTION      0.00   229.15     0  01:48           0        1.44       1.681
  YS02163601           JUNCTION      0.11   423.50     0  01:51      0.0031        4.87       0.615
  YS02164001           JUNCTION      0.00   423.38     0  01:51           0        4.85       0.411
  YS02001647           JUNCTION      0.00   756.82     0  02:48           0        6.83       0.415
  YSB1154              JUNCTION     43.61    43.61     0  01:53       0.163       0.164       0.888
  YSB6556              JUNCTION      0.00    43.64     0  01:53           0       0.165       0.765
  YSB1174              JUNCTION     35.87    35.87     0  01:50        0.12        0.12       1.078
  YSB1171              JUNCTION      0.00    78.03     0  01:52           0       0.291       2.227
  YS02006553           JUNCTION      0.00   683.04     0  03:22           0        7.12       0.217
  YS02006561           JUNCTION      0.00   968.44     0  02:16           0        10.9       0.005
  YS02006556           JUNCTION      0.00   683.32     0  03:22           0        7.13       0.153
  YS02006558           JUNCTION    522.52   968.82     0  02:16        3.81        10.9       0.047
  YS02001783           JUNCTION      0.00   968.60     0  02:16           0        10.9       0.023
  YS02001784           JUNCTION      1.06   969.57     0  02:16      0.0299        10.9       0.036
  YS02001786           JUNCTION      0.06   969.50     0  02:16     0.00159        10.9       0.032
  YS02001788           JUNCTION      0.07   969.47     0  02:13       0.002        10.9       0.017
  YS02001790           JUNCTION      0.15   969.65     0  02:15     0.00437        10.9       0.013
  YS02001791           JUNCTION      0.00   969.65     0  02:16           0        10.9       0.009
  YS02001793           JUNCTION      0.00   969.79     0  02:16           0        10.9       0.005
  WS02004139           JUNCTION      0.32   190.32     0  06:50     0.00905        1.86       0.671
  WSC                  OUTFALL       0.00   998.25     0  02:04           0        8.44       0.000
  3                    OUTFALL       0.00   450.07     0  04:10           0         1.8       0.000
  4                    OUTFALL       0.00   184.09     0  01:52           0       0.173       0.000
  5                    OUTFALL       0.00     0.00     0  00:00           0           0       0.000 ltr
  JK-storage           STORAGE       0.00   969.78     0  02:16           0          11      -0.206
  CC-storage           STORAGE       0.00  2134.98     0  02:03           0        5.46       1.200
  XR-storage           STORAGE     844.69   844.69     0  03:01        12.1        12.7       0.001
  
  
  **********************
  Node Surcharge Summary
  **********************
  
  Surcharging occurs when water rises above the top of the highest conduit.
  ---------------------------------------------------------------------
                                               Max. Height   Min. Depth
                                   Hours       Above Crown    Below Rim
  Node                 Type      Surcharged         Meters       Meters
  ---------------------------------------------------------------------
  WS02004401           JUNCTION        0.48          0.115        1.545
  WS02004402           JUNCTION        0.52          0.119        1.621
  WS02004403           JUNCTION        0.53          0.108        1.922
  WS02004404           JUNCTION        0.71          0.159        2.621
  WS02004406           JUNCTION        0.63          0.108        2.342
  WS02004405           JUNCTION        0.66          0.138        2.662
  WS02006109           JUNCTION        1.47          0.441        1.379
  WS02006110           JUNCTION        1.00          0.200        1.650
  WS02006112           JUNCTION        1.18          0.390        1.290
  WS02006115           JUNCTION        0.25          0.057        2.193
  WS02006116           JUNCTION        0.30          0.065        2.225
  WS02006230           JUNCTION        0.65          0.295        1.275
  WS02006231           JUNCTION        0.69          0.299        1.231
  WS02006232           JUNCTION        1.09          0.397        1.083
  WS02006234           JUNCTION        0.72          0.280        0.960
  WS02006235           JUNCTION        0.76          0.294        0.996
  WS02006238           JUNCTION        0.84          0.309        1.121
  WS02006240           JUNCTION        0.62          0.239        1.151
  WS02006242           JUNCTION        0.71          0.394        0.426
  WS02006243           JUNCTION        0.27          0.515        0.255
  WS02006245           JUNCTION        0.14          0.064        0.786
  WS02006247           JUNCTION        0.11          0.043        0.717
  WS02006239           JUNCTION        0.69          0.253        1.037
  WS02006228           JUNCTION        1.47          0.550        1.650
  YS02001748           JUNCTION        5.99          0.297        0.893
  YS02001751           JUNCTION        6.02          0.921        0.279
  YS02001754           JUNCTION        6.05          0.876        0.274
  YS02001762           JUNCTION        6.08          1.040        0.110
  YS02001765           JUNCTION        6.08          0.989        0.111
  YS02001767           JUNCTION        6.07          0.944        0.086
  YS02001770           JUNCTION        6.07          0.895        0.025
  YS02001774           JUNCTION        6.08          0.982        0.068
  YS02001779           JUNCTION        6.04          0.680        0.000
  YS02001882           JUNCTION        1.77          0.830        0.000
  YS02001884           JUNCTION        1.80          0.870        0.000
  YS02001759           JUNCTION        6.09          1.080        0.130
  YS02001887           JUNCTION        1.88          0.882        0.068
  YS02001890           JUNCTION        1.90          0.760        0.000
  YS02001898           JUNCTION        1.73          0.582        0.158
  YS02001901           JUNCTION        1.84          0.709        0.161
  YS02001904           JUNCTION        1.82          0.662        0.188
  YS02001907           JUNCTION        2.26          0.950        0.000
  YS02001910           JUNCTION        1.95          1.032        0.068
  YS02001915           JUNCTION        1.76          1.000        0.000
  YS02001918           JUNCTION        1.54          0.810        0.000
  YS02001619           JUNCTION        6.02          0.610        0.000
  YS02001629           JUNCTION        6.02          0.470        0.000
  YS02001641           JUNCTION        6.08          0.937        0.163
  YS02001644           JUNCTION        6.08          0.920        0.000
  YS02001652           JUNCTION        6.05          1.130        0.000
  YS02001655           JUNCTION        6.02          1.200        0.000
  YS02001920           JUNCTION        1.57          0.835        0.305
  YS02001923           JUNCTION        0.01          0.457        0.363
  YS02001926           JUNCTION        0.01          0.900        0.000
  YS02001658           JUNCTION        5.99          1.255        0.045
  YS02001661           JUNCTION        0.15          1.390        0.000
  YS02001622           JUNCTION        6.02          0.620        0.000
  YS02001633           JUNCTION        6.08          0.925        0.135
  YS02001649           JUNCTION        6.08          1.050        0.000
  YS02001757           JUNCTION        6.12          1.180        0.030
  YS02001895           JUNCTION        1.74          0.593        0.157
  YS02001625           JUNCTION        6.05          0.780        0.000
  YS02163301           JUNCTION        6.07          0.881        0.149
  YS02163601           JUNCTION        6.09          0.987        0.093
  YS02164001           JUNCTION        6.08          0.917        0.183
  YS02001647           JUNCTION        6.05          0.803        0.097
  YS02006553           JUNCTION        2.33          0.976        0.214
  YS02006561           JUNCTION        1.65          0.465        0.685
  YS02006556           JUNCTION        2.12          0.916        0.434
  YS02006558           JUNCTION        2.09          0.895        0.505
  YS02001783           JUNCTION        2.13          0.939        0.661
  YS02001784           JUNCTION        2.16          1.347        0.143
  YS02001786           JUNCTION        2.12          1.376        0.054
  YS02001788           JUNCTION        2.10          1.480        0.000
  YS02001790           JUNCTION        4.75          1.157        0.000
  YS02001791           JUNCTION        5.07          1.602        0.318
  YS02001793           JUNCTION        5.12          1.011        1.589
  
  
  *********************
  Node Flooding Summary
  *********************
  
  Flooding refers to all water that overflows a node, whether it ponds or not.
  --------------------------------------------------------------------------
                                                             Total   Maximum
                                 Maximum   Time of Max       Flood    Ponded
                        Hours       Rate    Occurrence      Volume     Depth
  Node                 Flooded       LPS   days hr:min    10^6 ltr    Meters
  --------------------------------------------------------------------------
  YS02001779              3.68    669.65      0  02:49       3.551     0.000
  YS02001882              0.01     13.94      0  01:54       0.000     0.000
  YS02001884              0.01     13.16      0  01:54       0.000     0.000
  YS02001890              0.58     90.36      0  02:16       0.102     0.000
  YS02001907              1.40    607.37      0  01:58       2.006     0.000
  YS02001915              0.01     86.15      0  01:54       0.000     0.000
  YS02001918              0.01     96.87      0  01:56       0.000     0.000
  YS02001619              0.01     64.94      0  01:47       0.000     0.000
  YS02001629              0.01    204.77      0  01:47       0.001     0.000
  YS02001644              5.92   1479.22      0  02:48      13.229     0.000
  YS02001652              0.01      5.44      0  02:22       0.000     0.000
  YS02001655              0.01     13.28      0  02:22       0.000     0.000
  YS02001926              0.01    263.08      0  01:57       0.000     0.000
  YS02001661              0.01    114.11      0  02:22       0.000     0.000
  YS02001622              0.01     55.95      0  01:47       0.000     0.000
  YS02001649              0.04     39.57      0  02:12       0.002     0.000
  YS02001625              1.98    326.12      0  02:16       1.444     0.000
  YS02001788              0.01    175.12      0  01:53       0.000     0.000
  YS02001790              0.01    210.71      0  01:53       0.000     0.000
  JK-storage              4.26    968.80      0  02:20       7.704     0.000
  XR-storage              7.10    842.15      0  03:00       9.929     0.000
  
  
  **********************
  Storage Volume Summary
  **********************
  
  --------------------------------------------------------------------------------------------------
                         Average     Avg  Evap Exfil       Maximum     Max    Time of Max    Maximum
                          Volume    Pcnt  Pcnt  Pcnt        Volume    Pcnt     Occurrence    Outflow
  Storage Unit           1000 m3    Full  Loss  Loss       1000 m3    Full    days hr:min        LPS
  --------------------------------------------------------------------------------------------------
  JK-storage               0.240      82     0     0         0.291     100       0  01:53     599.91
  CC-storage               3.198      20     0     0         3.991      25       0  02:45     200.00
  XR-storage               0.915      99     0     0         0.926     100       0  00:44     190.00
  
  
  ***********************
  Outfall Loading Summary
  ***********************
  
  -----------------------------------------------------------
                         Flow       Avg       Max       Total
                         Freq      Flow      Flow      Volume
  Outfall Node           Pcnt       LPS       LPS    10^6 ltr
  -----------------------------------------------------------
  WSC                   99.99    348.48    998.25       8.444
  3                     63.73    157.35    450.07       1.799
  4                     14.54     67.41    184.09       0.173
  5                      0.00      0.00      0.00       0.000
  -----------------------------------------------------------
  System                44.56    573.24   1250.09      10.416
  
  
  ********************
  Link Flow Summary
  ********************
  
  -----------------------------------------------------------------------------
                                 Maximum  Time of Max   Maximum    Max/    Max/
                                  |Flow|   Occurrence   |Veloc|    Full    Full
  Link                 Type          LPS  days hr:min     m/sec    Flow   Depth
  -----------------------------------------------------------------------------
  WS02003066WSF200     CONDUIT    806.61     0  01:58      3.09    0.14    0.29
  WS02006287WS02006284 CONDUIT    655.86     0  01:55      2.36    0.30    0.38
  WS02006284WS02006280 CONDUIT    656.04     0  01:55      2.59    0.27    0.36
  WS02006280WS02006229 CONDUIT    656.05     0  01:55      4.21    0.14    0.25
  WS02006229WS02006228 CONDUIT    784.24     0  01:52      1.56    2.60    1.00
  WS02006256WS02006235 CONDUIT    166.25     0  00:01      2.58    1.76    1.00
  WS02006253WS02006251 CONDUIT    153.32     0  01:51      0.61    0.46    0.92
  WS02006252WS02006251 CONDUIT    200.34     0  02:20      1.97    0.74    0.76
  WS02006251WS02006249 CONDUIT    353.56     0  01:51      1.02    1.02    0.90
  WS02006249WS02006248 CONDUIT    273.65     0  01:49      1.06    1.50    0.90
  WS02006248WS02006247 CONDUIT    254.65     0  02:30      1.00    0.55    0.96
  WS02006247WS02006245 CONDUIT    256.18     0  02:30      0.94    2.03    1.00
  WS02006245WS02006243 CONDUIT    257.72     0  02:30      1.05    0.76    1.00
  WS02006243WS02006242 CONDUIT    260.66     0  03:01      0.90    0.56    1.00
  WS02006242WS02006240 CONDUIT    262.80     0  03:01      0.81    1.04    1.00
  WS02006240WS02006239 CONDUIT    265.52     0  03:00      0.93    0.84    1.00
  WS02006239WS02006238 CONDUIT    267.24     0  03:00      0.79    0.86    1.00
  WS02006238WS02006235 CONDUIT    267.20     0  03:00      1.25    0.60    1.00
  WS02006235WS02006234 CONDUIT    287.05     0  02:57      0.93    3.03    1.00
  WS02006234WS02006232 CONDUIT    286.73     0  02:57      1.13    0.58    1.00
  WS02006232WS02006231 CONDUIT    286.68     0  02:57      0.87    0.60    1.00
  WS02006231WS02006230 CONDUIT    286.26     0  02:58      1.22    4.34    1.00
  WS02006230WS02006229 CONDUIT    296.06     0  02:58      0.86    6.59    1.00
  WS02006228WS02006109 CONDUIT    784.27     0  01:53      1.56    3.43    1.00
  WS02006116WS02004401 CONDUIT    809.98     0  01:55      1.03    1.12    1.00
  WS02006115WS02006116 CONDUIT    810.22     0  01:55      1.03    1.04    1.00
  WS02006113WS02006111 CONDUIT    787.72     0  01:50      2.65    0.94    0.76
  WS02006112WS02006115 CONDUIT    809.81     0  01:55      1.03    0.48    1.00
  WS02006111WS02006112 CONDUIT    784.87     0  01:55      1.79    0.37    0.87
  WS02006110WS02006113 CONDUIT    785.40     0  01:52      1.73    0.71    0.88
  WS02006109WS02006110 CONDUIT    785.44     0  01:52      1.56    1.51    1.00
  WS02004411WS02004412 CONDUIT    806.53     0  01:57      1.14    1.15    0.84
  WS02004401WS02004402 CONDUIT    810.05     0  01:55      1.03    0.97    1.00
  WS02004413WS02003067 CONDUIT    806.59     0  01:58      1.40    0.35    0.69
  WS02004412WS02004413 CONDUIT    806.54     0  01:57      1.08    0.54    0.90
  WS02004410WS02004411 CONDUIT    806.73     0  01:56      1.13    1.10    0.85
  WS02004409WS02004410 CONDUIT    807.61     0  01:56      1.14    1.04    0.85
  WS02004407WS02004409 CONDUIT    810.00     0  01:55      1.68    0.29    0.61
  WS02004406WS02004407 CONDUIT    810.34     0  01:55      1.42    0.36    0.68
  WS02004405WS02004406 CONDUIT    810.35     0  01:55      1.03    1.60    1.00
  WS02004404WS02004405 CONDUIT    810.28     0  01:55      1.03    7.94    1.00
  WS02004403WS02004404 CONDUIT    810.07     0  01:55      1.03    0.59    1.00
  WS02004402WS02004403 CONDUIT    809.97     0  01:55      1.03    1.16    1.00
  WS02004139WS02001211 CONDUIT    189.86     0  07:00      0.53    0.24    0.50
  WS02004138WS02004139 CONDUIT    190.00     0  06:50      2.39    0.04    0.35
  WS02003067WS02003066 CONDUIT    806.67     0  01:58      1.52    0.26    0.48
  WS02001213WS02003059 CONDUIT    196.83     0  07:01      0.46    0.32    0.74
  WS02001212WS02001213 CONDUIT    196.64     0  07:01      1.03    0.30    0.42
  WS02001211WS02001212 CONDUIT    196.79     0  07:00      0.54    0.15    0.56
  WS02003072WS02003073 CONDUIT    996.64     0  02:04      1.76    2.15    0.50
  WS02003069WS02003072 CONDUIT    996.79     0  02:03      1.65    0.48    0.53
  WS02003060WS02003069 CONDUIT    996.98     0  02:02      1.89    0.39    0.47
  WS02003059WS02003060 CONDUIT    197.29     0  07:02      0.63    0.13    0.66
  HS02004901HS02004770 CONDUIT     31.96     0  01:52      0.09    0.12    0.51
  HS02004876HS02004881 CONDUIT    126.38     0  01:55      1.20    1.34    0.15
  HS02004870HS02004876 CONDUIT    102.10     0  01:55      0.82    0.07    0.18
  HS02004842HS02004848 CONDUIT     15.55     0  02:06      0.07    0.01    0.33
  HS02004837HS02004842 CONDUIT     15.96     0  02:07      0.41    0.01    0.35
  HS02004830HS02004837 CONDUIT     62.46     0  01:55      0.66    0.06    0.14
  HS02004824HS02004830 CONDUIT     62.57     0  01:56      0.62    0.08    0.16
  HS02004817HS02004824 CONDUIT    123.43     0  01:59      0.31    0.06    0.58
  HS02004770HS02004777 CONDUIT    165.77     0  01:51      0.46    0.30    0.52
  HS02004799HS02004480 CONDUIT    414.29     0  01:53      1.02    0.52    0.58
  HS02004792HS02004799 CONDUIT    377.20     0  01:52      1.15    0.23    0.47
  HS02004788HS02004792 CONDUIT    218.44     0  01:53      1.24    0.14    0.25
  HS02004785HS02004788 CONDUIT    165.54     0  01:53      0.86    1.25    0.27
  HS02004777HS02004785 CONDUIT    165.44     0  01:52      0.54    0.20    0.44
  HS02004480HS02004478 CONDUIT    492.13     0  01:53      1.52    2.07    0.46
  HS02004479HS02004480 CONDUIT     78.30     0  01:54      0.27    0.08    0.55
  HS02004862HS02004870 CONDUIT     77.52     0  01:55      0.79    0.08    0.14
  HS02004848HS02004852 CONDUIT     36.10     0  01:55      0.52    0.04    0.10
  HS02004856HS02004862 CONDUIT     54.46     0  01:55      0.59    0.05    0.13
  HS02004852HS02004856 CONDUIT     36.15     0  01:56      0.33    0.04    0.16
  HS02004802HS02004478 CONDUIT    170.22     0  01:58      0.53    0.15    0.47
  HS02004478WS02006287 CONDUIT    655.81     0  01:54      2.08    0.18    0.35
  HS02004817HS02004807 CONDUIT    125.36     0  01:59      0.24    0.07    0.75
  HS02004807HS02004802 CONDUIT    169.24     0  01:58      0.47    0.32    0.53
  YS02001759YS02001757 CONDUIT    869.04     0  02:04      1.11    0.62    1.00
  YS02001762YS02001759 CONDUIT    435.73     0  02:03      0.55    0.50    1.00
  YS02001765YS02001762 CONDUIT    435.62     0  02:03      0.55    0.41    1.00
  YS02001770YS02001767 CONDUIT    435.21     0  02:03      0.55    1.72    1.00
  YS02001774YS02001770 CONDUIT    669.64     0  02:49      0.85    0.43    1.00
  YS02001779YS02001774 CONDUIT    669.65     0  02:49      0.85    0.34    1.00
  YS02001649YS02001757 CONDUIT    991.77     0  01:58      1.26    0.60    1.00
  YS02001767YS02001765 CONDUIT    435.61     0  02:03      0.55    0.55    1.00
  YS02006561YS02001783 CONDUIT    968.60     0  02:16      2.17    0.50    1.00
  YS02001783YS02001784 CONDUIT    968.51     0  02:16      1.93    1.34    1.00
  YS02001784YS02001785 CONDUIT    969.45     0  02:16      1.93    2.26    1.00
  YS02001788YS02001790 CONDUIT    969.50     0  02:15      2.38    0.71    1.00
  YS02001790YS02001791 CONDUIT    969.65     0  02:16      2.89    1.06    1.00
  YS02001791YS02001793 CONDUIT    969.79     0  02:16      5.77    0.42    1.00
  YS02001910YS02001907 CONDUIT    626.81     0  01:58      0.80    0.35    1.00
  YS02001786YS02001788 CONDUIT    969.40     0  02:13      2.28    1.87    1.00
  YS02001915YS02001910 CONDUIT    626.86     0  01:58      0.80    0.31    1.00
  YS02001918YS02001915 CONDUIT    357.50     0  01:58      0.46    0.20    1.00
  YS02001923YS02001920 CONDUIT    353.75     0  01:58      0.78    0.16    1.00
  YS02001926YS02001923 CONDUIT    303.64     0  01:58      0.87    0.43    1.00
  YS02001929YS02001926 CONDUIT    230.55     0  01:58      0.93    0.11    0.95
  YS02001920YS02001918 CONDUIT    356.87     0  01:58      0.76    0.35    1.00
  YS02001629YS02163301 CONDUIT    229.15     0  01:48      0.29    0.28    1.00
  YS02001619YS02001622 CONDUIT    336.76     0  02:16      0.76    0.50    1.00
  YS02001622YS02001625 CONDUIT    336.60     0  02:16      0.43    0.18    1.00
  YS02001625YS02001629 CONDUIT    210.16     0  01:47      0.31    0.10    1.00
  YS02163301YS02001633 CONDUIT    228.84     0  01:48      0.29    0.22    1.00
  YS02163601YS02164001 CONDUIT    423.38     0  01:51      0.54    0.38    1.00
  YS02164001YS02001641 CONDUIT    423.54     0  01:51      0.54    0.58    1.00
  YS02001641YS02001644 CONDUIT    423.76     0  01:51      0.54    1.37    1.00
  YS02001647YS02001649 CONDUIT    756.82     0  02:48      0.96    0.40    1.00
  YS02006553YS02006556 CONDUIT    683.32     0  03:22      0.87    0.58    1.00
  YS02006556YS02006558 CONDUIT    684.00     0  03:22      0.87    0.54    1.00
  YSB6556YSB1171       CONDUIT     43.98     0  01:54      0.13    0.05    0.82
  YS02001907YS02006553 CONDUIT    683.04     0  03:22      0.76    0.80    1.00
  YS02006558YS02006561 CONDUIT    968.44     0  02:16      3.54    2.14    1.00
  YS02001633YS02163601 CONDUIT    423.39     0  01:51      0.54    0.44    1.00
  YS02001644YS02001647 CONDUIT    756.89     0  02:48      0.96    0.44    1.00
  YS02001745YS02001748 CONDUIT    395.84     0  02:16      1.73    0.15    0.97
  YS02001748YS02001751 CONDUIT    395.75     0  02:16      1.25    0.20    1.00
  YS02001751YS02001754 CONDUIT    395.87     0  02:16      1.03    0.19    1.00
  YS02001754YS02001757 CONDUIT    396.10     0  02:16      0.50    0.16    1.00
  YS02001882YS02001884 CONDUIT     19.72     0  01:53      0.12    0.02    1.00
  YS02001884YS02001887 CONDUIT     46.95     0  01:52      0.09    0.06    1.00
  YS02001890YS02001895 CONDUIT    517.24     0  02:23      0.66    0.24    1.00
  YS02001895YS02001898 CONDUIT    517.36     0  02:24      0.66    0.90    1.00
  YS02001898YS02001901 CONDUIT    517.30     0  02:24      0.66    0.33    1.00
  YS02001901YS02001904 CONDUIT    517.29     0  02:24      0.66    0.80    1.00
  YS02001904YS02001907 CONDUIT    517.29     0  02:23      0.66    0.18    1.00
  YS02001887YS02001890 CONDUIT    606.39     0  02:15      0.77    1.04    1.00
  YS02001652YS02001649 CONDUIT    478.33     0  02:16      0.61    0.24    1.00
  YS02001655YS02001652 CONDUIT    477.56     0  02:16      1.09    0.23    1.00
  YS02001658YS02001655 CONDUIT    477.07     0  02:16      1.45    0.20    1.00
  YS02001661YS02001658 CONDUIT    489.78     0  02:14      1.85    0.19    1.00
  YS02001664YS02001661 CONDUIT    774.55     0  02:05      1.75    0.24    0.77
  YSB1154YSB6556       CONDUIT     43.64     0  01:53      0.17    0.08    0.72
  YSB1174YSB1171       CONDUIT     35.14     0  01:50      0.10    0.05    0.83
  YSB1171HS02004479    CONDUIT     78.00     0  01:53      0.54    0.05    0.67
  HS02004881HS02006253 CONDUIT    139.58     0  01:55      2.33    0.03    0.27
  YS02001793JiankangQianchi CONDUIT    969.78     0  02:16      4.33    0.08    1.00
  YS02001757CaochengTiaoxuchi CONDUIT   2134.98     0  02:03      3.70    0.94    1.00
  WSF200WS02003060     CONDUIT    805.32     0  01:58      2.25    0.18    0.38
  1                    CONDUIT    998.25     0  02:04      3.32    0.35    0.41
  2                    CONDUIT    184.09     0  01:52      5.72    0.44    0.47
  3                    CONDUIT    450.07     0  04:10      9.60    0.72    0.63
  4                    CONDUIT      0.00     0  00:00      0.00    0.00    0.00
  CC-Pump-1            PUMP       200.00     0  07:20              1.00
  CC-Pump-2            PUMP       199.97     0  04:30              1.00
  JK-Pump-1            PUMP       300.00     0  00:00              1.00
  JK-Pump-2            PUMP       300.00     0  03:40              1.00
  XR-Pump-1            PUMP        95.00     0  00:50              1.00
  XR-Pump-2            PUMP        94.99     0  02:00              1.00
  XR-Pump-3            PUMP         0.00     0  00:00              0.00
  XR-Pump-4            PUMP        95.00     0  00:00              1.00
  
  
  ***************************
  Flow Classification Summary
  ***************************
  
  -------------------------------------------------------------------------------------
                      Adjusted    ---------- Fraction of Time in Flow Class ---------- 
                       /Actual         Up    Down  Sub   Sup   Up    Down  Norm  Inlet 
  Conduit               Length    Dry  Dry   Dry   Crit  Crit  Crit  Crit  Ltd   Ctrl  
  -------------------------------------------------------------------------------------
  WS02003066WSF200        1.00   0.08  0.00  0.00  0.00  0.92  0.00  0.00  0.63  0.00
  WS02006287WS02006284    1.00   0.05  0.01  0.00  0.54  0.40  0.00  0.00  0.65  0.00
  WS02006284WS02006280    1.00   0.06  0.00  0.00  0.00  0.00  0.00  0.94  0.00  0.00
  WS02006280WS02006229    1.00   0.06  0.00  0.00  0.00  0.00  0.00  0.94  0.00  0.00
  WS02006229WS02006228    1.00   0.00  0.00  0.00  0.98  0.00  0.00  0.02  0.00  0.00
  WS02006256WS02006235    1.00   0.00  0.00  0.00  0.99  0.00  0.00  0.00  0.00  0.00
  WS02006253WS02006251    1.00   0.04  0.01  0.00  0.94  0.00  0.01  0.00  0.00  0.00
  WS02006252WS02006251    1.00   0.08  0.00  0.00  0.00  0.00  0.92  0.00  0.00  0.00
  WS02006251WS02006249    1.00   0.00  0.00  0.00  1.00  0.00  0.00  0.00  0.56  0.00
  WS02006249WS02006248    1.00   0.00  0.03  0.00  0.50  0.00  0.47  0.00  0.00  0.00
  WS02006248WS02006247    1.00   0.03  0.00  0.00  0.97  0.00  0.00  0.00  0.46  0.00
  WS02006247WS02006245    1.00   0.03  0.00  0.00  0.96  0.00  0.00  0.01  0.00  0.00
  WS02006245WS02006243    1.00   0.02  0.01  0.00  0.92  0.00  0.00  0.06  0.05  0.00
  WS02006243WS02006242    1.00   0.01  0.00  0.00  0.99  0.00  0.00  0.00  0.31  0.00
  WS02006242WS02006240    1.00   0.00  0.00  0.00  0.99  0.00  0.00  0.00  0.00  0.00
  WS02006240WS02006239    1.00   0.00  0.00  0.00  0.95  0.00  0.00  0.04  0.02  0.00
  WS02006239WS02006238    1.00   0.00  0.00  0.00  1.00  0.00  0.00  0.00  0.04  0.00
  WS02006238WS02006235    1.00   0.00  0.00  0.00  1.00  0.00  0.00  0.00  0.00  0.00
  WS02006235WS02006234    1.00   0.00  0.00  0.00  0.96  0.00  0.04  0.00  0.00  0.00
  WS02006234WS02006232    1.00   0.00  0.00  0.00  1.00  0.00  0.00  0.00  0.06  0.00
  WS02006232WS02006231    1.00   0.00  0.00  0.00  0.99  0.00  0.01  0.00  0.00  0.00
  WS02006231WS02006230    1.00   0.00  0.00  0.00  0.29  0.00  0.70  0.00  0.00  0.00
  WS02006230WS02006229    1.00   0.00  0.00  0.00  0.98  0.00  0.00  0.02  0.01  0.00
  WS02006228WS02006109    1.00   0.00  0.00  0.00  0.99  0.00  0.00  0.00  0.01  0.00
  WS02006116WS02004401    1.00   0.03  0.00  0.00  0.97  0.00  0.00  0.00  0.00  0.00
  WS02006115WS02006116    1.00   0.03  0.00  0.00  0.96  0.00  0.00  0.01  0.00  0.00
  WS02006113WS02006111    1.00   0.03  0.00  0.00  0.06  0.91  0.00  0.00  0.19  0.00
  WS02006112WS02006115    1.00   0.03  0.00  0.00  0.97  0.00  0.00  0.00  0.00  0.00
  WS02006111WS02006112    1.00   0.03  0.00  0.00  0.97  0.00  0.00  0.00  0.89  0.00
  WS02006110WS02006113    1.00   0.01  0.01  0.00  0.97  0.00  0.00  0.00  0.00  0.00
  WS02006109WS02006110    1.00   0.00  0.01  0.00  0.98  0.00  0.01  0.00  0.00  0.00
  WS02004411WS02004412    1.00   0.05  0.00  0.00  0.95  0.00  0.00  0.00  0.00  0.00
  WS02004401WS02004402    1.00   0.03  0.00  0.00  0.97  0.00  0.00  0.00  0.00  0.00
  WS02004413WS02003067    1.00   0.05  0.02  0.00  0.00  0.00  0.93  0.00  0.00  0.00
  WS02004412WS02004413    1.00   0.05  0.00  0.00  0.95  0.00  0.00  0.00  0.04  0.00
  WS02004410WS02004411    1.00   0.05  0.00  0.00  0.95  0.00  0.00  0.00  0.03  0.00
  WS02004409WS02004410    1.00   0.05  0.00  0.00  0.95  0.00  0.00  0.00  0.01  0.00
  WS02004407WS02004409    1.00   0.05  0.00  0.00  0.95  0.00  0.00  0.00  0.89  0.00
  WS02004406WS02004407    1.00   0.00  0.05  0.00  0.95  0.00  0.00  0.00  0.00  0.00
  WS02004405WS02004406    1.00   0.00  0.00  0.00  1.00  0.00  0.00  0.00  0.01  0.00
  WS02004404WS02004405    1.00   0.00  0.00  0.00  1.00  0.00  0.00  0.00  0.00  0.00
  WS02004403WS02004404    1.00   0.00  0.03  0.00  0.97  0.00  0.00  0.00  0.01  0.00
  WS02004402WS02004403    1.00   0.03  0.00  0.00  0.97  0.00  0.00  0.00  0.00  0.00
  WS02004139WS02001211    1.00   0.00  0.00  0.00  0.99  0.00  0.01  0.00  0.00  0.00
  WS02004138WS02004139    1.00   0.00  0.01  0.00  0.98  0.01  0.00  0.00  1.00  0.00
  WS02003067WS02003066    1.00   0.07  0.01  0.00  0.92  0.00  0.00  0.00  0.00  0.00
  WS02001213WS02003059    1.00   0.00  0.01  0.00  0.99  0.00  0.00  0.00  0.00  0.00
  WS02001212WS02001213    1.00   0.01  0.00  0.00  0.42  0.00  0.57  0.00  0.00  0.00
  WS02001211WS02001212    1.00   0.00  0.01  0.00  0.99  0.00  0.00  0.00  0.00  0.00
  WS02003072WS02003073    1.00   0.00  0.00  0.00  0.00  0.00  0.00  1.00  0.00  0.00
  WS02003069WS02003072    1.00   0.00  0.00  0.00  0.99  0.01  0.00  0.00  0.76  0.00
  WS02003060WS02003069    1.00   0.00  0.00  0.00  0.96  0.04  0.00  0.00  0.53  0.00
  WS02003059WS02003060    1.00   0.00  0.00  0.00  0.99  0.01  0.00  0.00  0.02  0.00
  HS02004901HS02004770    1.00   0.05  0.00  0.00  0.94  0.00  0.00  0.00  0.00  0.00
  HS02004876HS02004881    1.00   0.03  0.00  0.00  0.81  0.17  0.00  0.00  0.00  0.00
  HS02004870HS02004876    1.00   0.01  0.00  0.00  0.99  0.00  0.00  0.00  0.95  0.00
  HS02004842HS02004848    1.00   0.00  0.06  0.00  0.94  0.00  0.00  0.00  0.57  0.00
  HS02004837HS02004842    1.00   0.00  0.00  0.00  0.99  0.01  0.00  0.00  0.11  0.00
  HS02004830HS02004837    1.00   0.00  0.00  0.00  1.00  0.00  0.00  0.00  0.99  0.00
  HS02004824HS02004830    1.00   0.00  0.00  0.00  1.00  0.00  0.00  0.00  0.03  0.00
  HS02004817HS02004824    1.00   0.00  0.00  0.00  1.00  0.00  0.00  0.00  0.94  0.00
  HS02004770HS02004777    1.00   0.00  0.05  0.00  0.94  0.00  0.00  0.00  0.03  0.00
  HS02004799HS02004480    1.00   0.00  0.03  0.00  0.94  0.00  0.03  0.00  0.00  0.00
  HS02004792HS02004799    1.00   0.00  0.00  0.00  0.98  0.02  0.00  0.00  0.98  0.00
  HS02004788HS02004792    1.00   0.00  0.00  0.00  0.99  0.01  0.00  0.00  0.98  0.00
  HS02004785HS02004788    1.00   0.00  0.00  0.00  1.00  0.00  0.00  0.00  0.00  0.00
  HS02004777HS02004785    1.00   0.00  0.00  0.00  1.00  0.00  0.00  0.00  0.13  0.00
  HS02004480HS02004478    1.00   0.06  0.00  0.00  0.61  0.00  0.00  0.33  0.00  0.00
  HS02004479HS02004480    1.00   0.03  0.00  0.00  0.97  0.00  0.00  0.00  0.12  0.00
  HS02004862HS02004870    1.00   0.00  0.00  0.00  1.00  0.00  0.00  0.00  0.04  0.00
  HS02004848HS02004852    1.00   0.06  0.00  0.00  0.94  0.00  0.00  0.00  0.78  0.00
  HS02004856HS02004862    1.00   0.00  0.07  0.00  0.93  0.00  0.00  0.00  0.82  0.00
  HS02004852HS02004856    1.00   0.05  0.00  0.00  0.94  0.00  0.00  0.00  0.77  0.00
  HS02004802HS02004478    1.00   0.06  0.00  0.00  0.94  0.00  0.00  0.00  0.03  0.00
  HS02004478WS02006287    1.00   0.06  0.00  0.00  0.65  0.29  0.00  0.00  0.62  0.00
  HS02004817HS02004807    1.00   0.00  0.06  0.00  0.94  0.00  0.00  0.00  0.01  0.00
  HS02004807HS02004802    1.00   0.06  0.00  0.00  0.94  0.00  0.00  0.00  0.00  0.00
  YS02001759YS02001757    1.00   0.00  0.00  0.00  1.00  0.00  0.00  0.00  0.16  0.00
  YS02001762YS02001759    1.00   0.00  0.00  0.00  1.00  0.00  0.00  0.00  0.03  0.00
  YS02001765YS02001762    1.00   0.00  0.00  0.00  1.00  0.00  0.00  0.00  0.14  0.00
  YS02001770YS02001767    1.00   0.00  0.00  0.00  1.00  0.00  0.00  0.00  0.00  0.00
  YS02001774YS02001770    1.00   0.00  0.05  0.00  0.94  0.00  0.00  0.00  0.03  0.00
  YS02001779YS02001774    1.00   0.00  0.00  0.00  1.00  0.00  0.00  0.00  0.18  0.00
  YS02001649YS02001757    1.00   0.00  0.00  0.00  1.00  0.00  0.00  0.00  0.16  0.00
  YS02001767YS02001765    1.00   0.00  0.00  0.00  1.00  0.00  0.00  0.00  0.00  0.00
  YS02006561YS02001783    1.00   0.07  0.00  0.00  0.71  0.22  0.00  0.00  0.51  0.00
  YS02001783YS02001784    1.00   0.00  0.07  0.00  0.93  0.00  0.00  0.00  0.00  0.00
  YS02001784YS02001785    1.00   0.00  0.00  0.00  1.00  0.00  0.00  0.00  0.17  0.00
  YS02001788YS02001790    1.00   0.00  0.00  0.00  0.81  0.19  0.00  0.00  0.31  0.00
  YS02001790YS02001791    1.00   0.00  0.00  0.00  0.76  0.24  0.00  0.00  0.13  0.00
  YS02001791YS02001793    1.00   0.00  0.00  0.00  0.75  0.25  0.00  0.00  0.01  0.00
  YS02001910YS02001907    1.00   0.00  0.00  0.00  0.97  0.00  0.00  0.03  0.12  0.00
  YS02001786YS02001788    1.00   0.00  0.00  0.00  0.81  0.19  0.00  0.00  0.00  0.00
  YS02001915YS02001910    1.00   0.00  0.00  0.00  0.98  0.02  0.00  0.00  0.16  0.00
  YS02001918YS02001915    1.00   0.00  0.01  0.00  0.97  0.02  0.00  0.00  0.52  0.00
  YS02001923YS02001920    1.00   0.00  0.00  0.00  1.00  0.00  0.00  0.00  0.74  0.00
  YS02001926YS02001923    1.00   0.00  0.04  0.00  0.29  0.00  0.66  0.00  0.00  0.00
  YS02001929YS02001926    1.00   0.00  0.05  0.00  0.95  0.00  0.00  0.00  0.66  0.00
  YS02001920YS02001918    1.00   0.00  0.01  0.00  0.99  0.00  0.00  0.00  0.00  0.00
  YS02001629YS02163301    1.00   0.06  0.00  0.00  0.94  0.00  0.00  0.00  0.00  0.00
  YS02001619YS02001622    1.00   0.05  0.00  0.00  0.95  0.00  0.00  0.00  0.00  0.00
  YS02001622YS02001625    1.00   0.06  0.00  0.00  0.94  0.00  0.00  0.00  0.05  0.00
  YS02001625YS02001629    1.00   0.06  0.01  0.00  0.92  0.00  0.01  0.00  0.00  0.00
  YS02163301YS02001633    1.00   0.00  0.06  0.00  0.94  0.00  0.00  0.00  0.00  0.00
  YS02163601YS02164001    1.00   0.00  0.04  0.00  0.96  0.00  0.00  0.00  0.00  0.00
  YS02164001YS02001641    1.00   0.01  0.03  0.00  0.96  0.00  0.00  0.00  0.06  0.00
  YS02001641YS02001644    1.00   0.00  0.01  0.00  0.99  0.00  0.00  0.00  0.00  0.00
  YS02001647YS02001649    1.00   0.00  0.06  0.00  0.93  0.00  0.00  0.00  0.01  0.00
  YS02006553YS02006556    1.00   0.02  0.00  0.00  0.98  0.00  0.00  0.00  0.03  0.00
  YS02006556YS02006558    1.00   0.00  0.00  0.00  1.00  0.00  0.00  0.00  0.00  0.00
  YSB6556YSB1171          1.00   0.04  0.02  0.00  0.95  0.00  0.00  0.00  0.00  0.00
  YS02001907YS02006553    1.00   0.00  0.03  0.00  0.97  0.00  0.00  0.00  0.00  0.00
  YS02006558YS02006561    1.00   0.07  0.00  0.00  0.33  0.60  0.00  0.00  0.44  0.00
  YS02001633YS02163601    1.00   0.00  0.01  0.00  0.99  0.00  0.00  0.00  0.15  0.00
  YS02001644YS02001647    1.00   0.00  0.07  0.00  0.93  0.00  0.00  0.00  0.00  0.00
  YS02001745YS02001748    1.00   0.00  0.00  0.00  0.91  0.00  0.00  0.09  0.01  0.00
  YS02001748YS02001751    1.00   0.00  0.00  0.00  0.98  0.02  0.00  0.00  0.14  0.00
  YS02001751YS02001754    1.00   0.00  0.00  0.00  0.93  0.00  0.00  0.07  0.01  0.00
  YS02001754YS02001757    1.00   0.00  0.00  0.00  0.99  0.01  0.00  0.00  0.18  0.00
  YS02001882YS02001884    1.00   0.06  0.00  0.00  0.94  0.00  0.00  0.00  0.00  0.00
  YS02001884YS02001887    1.00   0.04  0.01  0.00  0.95  0.00  0.00  0.00  0.00  0.00
  YS02001890YS02001895    1.00   0.00  0.06  0.00  0.94  0.00  0.00  0.00  0.00  0.00
  YS02001895YS02001898    1.00   0.06  0.00  0.00  0.93  0.00  0.01  0.00  0.00  0.00
  YS02001898YS02001901    1.00   0.06  0.00  0.00  0.94  0.00  0.00  0.00  0.01  0.00
  YS02001901YS02001904    1.00   0.06  0.00  0.00  0.94  0.00  0.00  0.00  0.00  0.00
  YS02001904YS02001907    1.00   0.00  0.06  0.00  0.94  0.00  0.00  0.00  0.00  0.00
  YS02001887YS02001890    1.00   0.00  0.00  0.00  0.97  0.00  0.03  0.00  0.00  0.00
  YS02001652YS02001649    1.00   0.00  0.00  0.00  1.00  0.00  0.00  0.00  0.16  0.00
  YS02001655YS02001652    1.00   0.00  0.00  0.00  0.93  0.00  0.00  0.07  0.01  0.00
  YS02001658YS02001655    1.00   0.00  0.06  0.00  0.92  0.02  0.00  0.00  0.02  0.00
  YS02001661YS02001658    1.00   0.06  0.00  0.00  0.91  0.04  0.00  0.00  0.00  0.00
  YS02001664YS02001661    1.00   0.05  0.00  0.00  0.92  0.03  0.00  0.00  0.11  0.00
  YSB1154YSB6556          1.00   0.05  0.00  0.00  0.95  0.00  0.00  0.00  0.02  0.00
  YSB1174YSB1171          1.00   0.04  0.01  0.00  0.95  0.00  0.00  0.00  0.00  0.00
  YSB1171HS02004479       1.00   0.04  0.00  0.00  0.96  0.00  0.00  0.00  0.11  0.00
  HS02004881HS02006253    1.00   0.04  0.00  0.00  0.27  0.07  0.00  0.63  0.22  0.00
  YS02001793JiankangQianchi    1.00   0.00  0.00  0.00  0.95  0.05  0.00  0.00  0.19  0.00
  YS02001757CaochengTiaoxuchi    1.00   0.00  0.08  0.00  0.86  0.06  0.00  0.00  0.00  0.00
  WSF200WS02003060        1.00   0.00  0.08  0.00  0.19  0.73  0.00  0.00  0.37  0.00
  1                       1.00   0.00  0.00  0.00  0.00  1.00  0.00  0.00  0.28  0.00
  2                       1.00   0.85  0.00  0.00  0.00  0.15  0.00  0.00  0.02  0.00
  3                       1.00   0.36  0.00  0.00  0.00  0.64  0.00  0.00  0.33  0.00
  4                       1.00   1.00  0.00  0.00  0.00  0.00  0.00  0.00  0.00  0.00
  
  
  *************************
  Conduit Surcharge Summary
  *************************
  
  ----------------------------------------------------------------------------
                                                           Hours        Hours 
                         --------- Hours Full --------   Above Full   Capacity
  Conduit                Both Ends  Upstream  Dnstream   Normal Flow   Limited
  ----------------------------------------------------------------------------
  WS02006229WS02006228        1.47      1.47      1.47      1.58         1.47
  WS02006256WS02006235        5.19      5.19      6.95      2.91         0.01
  WS02006251WS02006249        0.01      0.01      0.01      0.01         0.01
  WS02006249WS02006248        0.01      0.01      0.01      0.81         0.01
  WS02006248WS02006247        0.01      0.01      0.11      0.01         0.01
  WS02006247WS02006245        0.14      0.17      0.14      1.91         0.13
  WS02006245WS02006243        0.18      0.18      0.27      0.01         0.01
  WS02006243WS02006242        0.29      0.29      0.71      0.01         0.01
  WS02006242WS02006240        0.62      0.62      0.75      0.16         0.01
  WS02006240WS02006239        0.65      0.65      0.69      0.01         0.01
  WS02006239WS02006238        0.76      0.76      0.84      0.01         0.01
  WS02006238WS02006235        0.82      0.82      0.91      0.01         0.01
  WS02006235WS02006234        0.72      0.72      0.76      5.06         0.05
  WS02006234WS02006232        0.76      0.76      1.09      0.01         0.01
  WS02006232WS02006231        0.68      0.68      1.09      0.01         0.01
  WS02006231WS02006230        0.65      0.65      0.71      5.35         0.02
  WS02006230WS02006229        1.52      1.52      1.52      5.91         1.48
  WS02006228WS02006109        1.47      1.49      1.47      2.05         1.47
  WS02006116WS02004401        0.48      0.48      0.48      0.38         0.37
  WS02006115WS02006116        0.29      0.29      0.30      0.18         0.17
  WS02006112WS02006115        0.25      0.25      1.18      0.01         0.01
  WS02006111WS02006112        0.01      0.01      1.61      0.01         0.01
  WS02006110WS02006113        0.01      0.01      1.48      0.01         0.01
  WS02006109WS02006110        1.00      1.00      1.49      1.01         0.01
  WS02004411WS02004412        0.01      0.01      0.01      0.45         0.01
  WS02004401WS02004402        0.48      0.48      0.52      0.01         0.01
  WS02004410WS02004411        0.01      0.01      0.01      0.35         0.01
  WS02004409WS02004410        0.01      0.01      0.01      0.20         0.01
  WS02004406WS02004407        0.01      0.01      0.63      0.01         0.01
  WS02004405WS02004406        0.63      0.66      0.63      1.11         0.63
  WS02004404WS02004405        0.66      0.70      0.66      5.48         0.66
  WS02004403WS02004404        0.53      0.53      0.70      0.01         0.01
  WS02004402WS02004403        0.52      0.52      0.53      0.47         0.46
  WS02003072WS02003073        0.01      0.01      0.01      1.48         0.01
  HS02004876HS02004881        0.01      0.01      0.01      0.49         0.01
  HS02004785HS02004788        0.01      0.01      0.01      0.35         0.01
  HS02004480HS02004478        0.01      0.01      0.01      0.79         0.01
  YS02001759YS02001757        6.09      6.09      6.12      0.01         0.01
  YS02001762YS02001759        6.08      6.08      6.09      0.01         0.01
  YS02001765YS02001762        6.08      6.08      6.08      0.01         0.01
  YS02001770YS02001767        6.07      6.07      6.07      0.42         0.61
  YS02001774YS02001770        6.07      6.07      6.08      0.01         0.01
  YS02001779YS02001774        6.04      6.04      6.08      0.01         0.01
  YS02001649YS02001757        6.08      6.08      6.12      0.01         0.01
  YS02001767YS02001765        6.07      6.07      6.08      0.01         0.01
  YS02006561YS02001783        1.65      1.65      2.13      0.01         0.01
  YS02001783YS02001784        2.12      2.13      2.16      2.03         1.95
  YS02001784YS02001785        2.12      2.16      2.12      2.74         2.12
  YS02001788YS02001790        2.10      2.10      4.75      0.01         0.01
  YS02001790YS02001791        4.75      4.75      5.07      1.51         1.50
  YS02001791YS02001793        5.07      5.07      5.14      0.01         0.01
  YS02001910YS02001907        1.95      1.95      2.26      0.01         0.01
  YS02001786YS02001788        2.10      2.12      2.10      2.44         2.10
  YS02001915YS02001910        1.76      1.76      1.95      0.01         0.01
  YS02001918YS02001915        1.54      1.54      1.76      0.01         0.01
  YS02001923YS02001920        1.36      1.36      1.57      0.01         0.01
  YS02001926YS02001923        0.01      0.01      0.01      0.01         0.01
  YS02001929YS02001926        0.01      0.01      0.01      0.01         0.01
  YS02001920YS02001918        1.54      1.54      1.57      0.01         0.01
  YS02001629YS02163301        6.06      6.06      6.07      0.01         0.01
  YS02001619YS02001622        6.02      6.02      6.02      0.01         0.01
  YS02001622YS02001625        6.02      6.02      6.05      0.01         0.01
  YS02001625YS02001629        6.02      6.02      6.05      0.01         0.01
  YS02163301YS02001633        6.07      6.07      6.08      0.01         0.01
  YS02163601YS02164001        6.08      6.08      6.09      0.01         0.01
  YS02164001YS02001641        6.08      6.08      6.08      0.01         0.02
  YS02001641YS02001644        6.08      6.08      6.08      2.21         2.25
  YS02001647YS02001649        6.05      6.05      6.08      0.01         0.01
  YS02006553YS02006556        2.12      2.12      2.33      0.01         0.01
  YS02006556YS02006558        2.18      2.18      2.37      0.01         0.01
  YSB6556YSB1171              0.01      0.01      0.14      0.01         0.01
  YS02001907YS02006553        2.76      2.76      2.95      0.01         0.01
  YS02006558YS02006561        1.83      2.09      1.83      2.63         1.83
  YS02001633YS02163601        6.08      6.08      6.09      0.01         0.01
  YS02001644YS02001647        6.05      6.05      6.08      0.01         0.01
  YS02001745YS02001748        0.01      0.01      5.99      0.01         0.01
  YS02001748YS02001751        6.00      6.00      6.02      0.01         0.01
  YS02001751YS02001754        6.02      6.02      6.05      0.01         0.01
  YS02001754YS02001757        6.05      6.05      6.12      0.01         0.01
  YS02001882YS02001884        1.77      1.77      1.80      0.01         0.01
  YS02001884YS02001887        1.85      1.85      1.88      0.01         0.01
  YS02001890YS02001895        1.74      1.74      1.96      0.01         0.01
  YS02001895YS02001898        1.73      1.73      1.74      0.01         0.01
  YS02001898YS02001901        1.75      1.75      1.84      0.01         0.01
  YS02001901YS02001904        1.82      1.82      1.84      0.01         0.01
  YS02001904YS02001907        1.82      1.82      2.35      0.01         0.01
  YS02001887YS02001890        1.90      1.90      1.93      0.20         0.01
  YS02001652YS02001649        6.06      6.06      6.08      0.01         0.01
  YS02001655YS02001652        6.02      6.02      6.05      0.01         0.01
  YS02001658YS02001655        5.99      5.99      6.02      0.01         0.01
  YS02001661YS02001658        0.14      0.14      5.99      0.01         0.01
  YS02001664YS02001661        0.01      0.01      1.45      0.01         0.01
  YS02001793JiankangQianchi        5.12      5.12      6.22      0.01         0.01
  YS02001757CaochengTiaoxuchi        5.61      5.61      6.12      0.01         0.01
  
  
  ***************
  Pumping Summary
  ***************
  
  ---------------------------------------------------------------------------------------------------------
                                                  Min       Avg       Max     Total     Power    % Time Off
                        Percent   Number of      Flow      Flow      Flow    Volume     Usage    Pump Curve
  Pump                 Utilized   Start-Ups       LPS       LPS       LPS  10^6 ltr     Kw-hr    Low   High
  ---------------------------------------------------------------------------------------------------------
  CC-Pump-1               25.53           4      0.00    106.05    200.00     0.720      0.70    0.0    4.6
  CC-Pump-2               21.27           4      0.00    107.33    199.97     0.600      0.70    0.0   15.5
  JK-Pump-1               36.17           8      0.00    170.22    300.00     1.439      9.22    0.0    0.0
  JK-Pump-2               44.66           6      0.00    195.40    300.00     1.895     12.69    0.0    0.0
  XR-Pump-1               65.93           9      0.00     62.99     95.00     1.140      5.20    0.0    0.0
  XR-Pump-2               17.02           4      0.00     48.63     94.99     0.228      1.02    0.0    0.0
  XR-Pump-3                0.00           0      0.00      0.00      0.00     0.000      0.00    0.0    0.0
  XR-Pump-4               31.93           6      0.00     56.57     95.00     0.485      2.83    0.0    0.0
  

  Analysis begun on:  Thu Jan  6 19:40:10 2022
  Analysis ended on:  Thu Jan  6 19:40:11 2022
  Total elapsed time: 00:00:01