
  EPA STORM WATER MANAGEMENT MODEL - VERSION 5.1 (Build 5.3.0.dev0)
  --------------------------------------------------------------

  WARNING 04: minimum elevation drop used for Conduit WS02004404WS02004405
  WARNING 03: negative offset ignored for Link YS02001904YS02001907
  
  *********************************************************
  NOTE: The summary statistics displayed in this report are
  based on results found at every computational time step,  
  not just on results from each reporting time step.
  *********************************************************
  
  ****************
  Analysis Options
  ****************
  Flow Units ............... LPS
  Process Models:
    Rainfall/Runoff ........ YES
    RDII ................... NO
    Snowmelt ............... NO
    Groundwater ............ NO
    Flow Routing ........... YES
    Ponding Allowed ........ NO
    Water Quality .......... NO
  Infiltration Method ...... HORTON
  Flow Routing Method ...... DYNWAVE
  Surcharge Method ......... EXTRAN
  Starting Date ............ 08/28/2015 08:00:00
  Ending Date .............. 08/28/2015 15:50:00
  Antecedent Dry Days ...... 8.0
  Report Time Step ......... 00:01:00
  Wet Time Step ............ 00:01:00
  Dry Time Step ............ 00:01:00
  Routing Time Step ........ 5.00 sec
  Variable Time Step ....... YES
  Maximum Trials ........... 8
  Number of Threads ........ 4
  Head Tolerance ........... 0.001500 m
  
  
  **************************        Volume         Depth
  Runoff Quantity Continuity     hectare-m            mm
  **************************     ---------       -------
  Total Precipitation ......         7.641        16.729
  Evaporation Loss .........         0.000         0.000
  Infiltration Loss ........         1.880         4.117
  Surface Runoff ...........         4.668        10.221
  Final Storage ............         1.093         2.393
  Continuity Error (%) .....        -0.013
  
  
  **************************        Volume        Volume
  Flow Routing Continuity        hectare-m      10^6 ltr
  **************************     ---------     ---------
  Dry Weather Inflow .......         0.616         6.165
  Wet Weather Inflow .......         4.667        46.672
  Groundwater Inflow .......         0.000         0.000
  RDII Inflow ..............         0.000         0.000
  External Inflow ..........         0.102         1.024
  External Outflow .........         1.027        10.273
  Flooding Loss ............         3.780        37.804
  Evaporation Loss .........         0.000         0.000
  Exfiltration Loss ........         0.000         0.000
  Initial Stored Volume ....         0.076         0.761
  Final Stored Volume ......         0.655         6.550
  Continuity Error (%) .....        -0.012
  
  
  *************************
  Highest Continuity Errors
  *************************
  Node HS02004842 (12.71%)
  Node YS02001884 (9.97%)
  Node HS02004817 (2.32%)
  Node YSB1171 (2.18%)
  Node YS02163301 (1.64%)
  
  
  ***************************
  Time-Step Critical Elements
  ***************************
  Link WS02006252WS02006251 (61.51%)
  Link 3 (24.38%)
  Link WS02006280WS02006229 (3.61%)
  Link WS02006238WS02006235 (3.37%)
  Link 2 (1.21%)
  
  
  ********************************
  Highest Flow Instability Indexes
  ********************************
  Link WS02006113WS02006111 (41)
  Link YS02163601YS02164001 (31)
  Link YS02163301YS02001633 (30)
  Link YS02001629YS02163301 (30)
  Link YS02001619YS02001622 (28)
  
  
  *************************
  Routing Time Step Summary
  *************************
  Minimum Time Step           :     0.05 sec
  Average Time Step           :     1.02 sec
  Maximum Time Step           :     5.00 sec
  Percent in Steady State     :    -0.00
  Average Iterations per Step :     3.79
  Percent Not Converging      :    13.65
  
  
  ***************************
  Subcatchment Runoff Summary
  ***************************
  
  ------------------------------------------------------------------------------------------------------------------------------
                            Total      Total      Total      Total     Imperv       Perv      Total       Total     Peak  Runoff
                           Precip      Runon       Evap      Infil     Runoff     Runoff     Runoff      Runoff   Runoff   Coeff
  Subcatchment                 mm         mm         mm         mm         mm         mm         mm    10^6 ltr      LPS
  ------------------------------------------------------------------------------------------------------------------------------
  sub0                      16.73       0.00       0.00       0.97      14.29       0.20      14.50        0.01     3.66   0.867
  sub1                      16.73       0.00       0.00       1.58      13.63       0.26      13.89        0.09    24.51   0.830
  sub2                      16.73       0.00       0.00       5.80       9.63       0.39      10.02        0.09    22.91   0.599
  sub3                      16.73       0.00       0.00       5.88       9.59       0.31       9.90        0.22    50.49   0.592
  sub4                      16.73       0.00       0.00       1.65      13.47       0.19      13.66        0.28    60.01   0.817
  sub5                      16.73       0.00       0.00       0.99      14.24       0.18      14.42        0.16    43.61   0.862
  sub7                      16.73       0.00       0.00       1.26      13.97       0.24      14.21        0.05    13.82   0.849
  sub8                      16.73       0.00       0.00       1.27      13.96       0.23      14.19        0.09    25.44   0.848
  sub9                      16.73       0.00       0.00       1.27      13.96       0.23      14.19        0.07    19.02   0.848
  sub10                     16.73       0.00       0.00       1.13      14.10       0.21      14.30        0.16    42.73   0.855
  sub11                     16.73       0.00       0.00       1.12      14.11       0.21      14.33        0.17    47.25   0.857
  sub12                     16.73       0.00       0.00       1.83      13.37       0.35      13.71        0.12    35.87   0.820
  sub14                     16.73       0.00       0.00       1.27      13.95       0.23      14.19        0.14    37.43   0.848
  sub15                     16.73       0.00       0.00       4.53      10.73       0.49      11.22        0.19    51.47   0.671
  sub16                     16.73       0.00       0.00       4.88      10.29       0.64      10.93        0.11    32.57   0.653
  sub17                     16.73       0.00       0.00       4.74      10.44       0.61      11.05        0.09    26.81   0.661
  sub22                     16.73       0.00       0.00       6.60       8.75       0.59       9.34        0.59   160.16   0.558
  sub23                     16.73       0.00       0.00       5.59       9.67       0.60      10.27        0.49   134.74   0.614
  sub60                     16.73       0.00       0.00       1.94      11.65       0.06      11.71        3.55   386.89   0.700
  sub61                     16.73       0.00       0.00       2.75      11.65       0.09      11.73        3.62   476.87   0.701
  sub62                     16.73       0.00       0.00       1.26      12.72       0.07      12.79        3.93   491.27   0.765
  sub63                     16.73       0.00       0.00       4.75      10.14       0.10      10.23        3.10   437.54   0.612
  sub64                     16.73       0.00       0.00       2.45      11.19       0.06      11.26        3.42   367.58   0.673
  sub65                     16.73       0.00       0.00       2.11      11.40       0.06      11.46        3.52   372.98   0.685
  sub66                     16.73       0.00       0.00       4.79       9.55       0.06       9.61        2.95   336.52   0.575
  sub67                     16.73       0.00       0.00       1.24      13.25       0.09      13.35        4.12   605.48   0.798
  sub68                     16.73       0.00       0.00       2.25      12.20       0.10      12.30        3.78   521.64   0.735
  sub69                     16.73       0.00       0.00       2.37      12.50       0.14      12.64        2.95   482.20   0.755
  sub70                     16.73      12.90       0.00       8.98      17.16       1.09      18.25        4.18   460.88   0.616
  sub71                     16.73       0.00       0.00       1.27      12.46       0.07      12.53        2.96   345.19   0.749
  sub72                     16.73       0.00       0.00       1.14      10.39       0.03      10.43        2.12   185.81   0.623
  sub73                     16.73      17.77       0.00       9.78      19.72       1.38      21.10        4.96   482.28   0.612
  sub74                     16.73       0.00       0.00      12.48       3.71       0.07       3.78        1.51   261.10   0.226
  
  
  ******************
  Node Depth Summary
  ******************
  
  ---------------------------------------------------------------------------------
                                 Average  Maximum  Maximum  Time of Max    Reported
                                   Depth    Depth      HGL   Occurrence   Max Depth
  Node                 Type       Meters   Meters   Meters  days hr:min      Meters
  ---------------------------------------------------------------------------------
  WS02001211           JUNCTION     0.49     0.61     5.45     0  02:04        0.61
  WS02001212           JUNCTION     0.25     0.38     5.44     0  02:02        0.38
  WS02001213           JUNCTION     0.48     0.67     5.43     0  02:03        0.67
  WS02003069           JUNCTION     0.33     0.56     5.15     0  02:04        0.56
  WS02003072           JUNCTION     0.40     0.62     4.99     0  02:04        0.62
  WS02003073           JUNCTION     0.23     0.38     4.45     0  02:05        0.38
  WS02003060           JUNCTION     0.30     0.50     5.43     0  02:03        0.50
  WS02003066           JUNCTION     0.21     0.35     5.90     0  02:01        0.35
  WS02003059           JUNCTION     0.55     0.75     5.43     0  02:04        0.75
  WS02003067           JUNCTION     0.53     0.77     6.09     0  02:01        0.77
  WS02004401           JUNCTION     0.63     1.07     7.07     0  01:58        1.07
  WS02004402           JUNCTION     0.66     1.08     7.04     0  01:58        1.08
  WS02004403           JUNCTION     0.68     1.07     7.00     0  01:58        1.07
  WS02004404           JUNCTION     0.76     1.13     6.98     0  01:59        1.13
  WS02004406           JUNCTION     0.76     1.08     6.91     0  01:58        1.08
  WS02004409           JUNCTION     0.44     0.82     6.59     0  02:00        0.82
  WS02004410           JUNCTION     0.46     0.83     6.55     0  02:00        0.83
  WS02004411           JUNCTION     0.48     0.82     6.50     0  02:01        0.82
  WS02004412           JUNCTION     0.49     0.81     6.45     0  02:01        0.81
  WS02004413           JUNCTION     0.65     0.96     6.43     0  02:01        0.96
  WS02004405           JUNCTION     0.75     1.11     6.96     0  01:59        1.11
  WS02006109           JUNCTION     0.71     1.20     7.81     0  01:57        1.19
  WS02006110           JUNCTION     0.70     1.07     7.65     0  01:58        1.06
  WS02006111           JUNCTION     0.21     0.53     7.23     0  01:58        0.53
  WS02006112           JUNCTION     0.80     1.33     7.22     0  02:00        1.33
  WS02006113           JUNCTION     0.30     0.56     7.46     0  01:58        0.56
  WS02006115           JUNCTION     0.52     1.01     7.15     0  01:59        1.01
  WS02006116           JUNCTION     0.61     1.08     7.12     0  01:59        1.08
  WS02006230           JUNCTION     0.66     1.28     8.03     0  01:57        1.28
  WS02006231           JUNCTION     0.44     0.92     8.04     0  01:58        0.91
  WS02006232           JUNCTION     0.55     1.01     8.05     0  01:57        1.00
  WS02006234           JUNCTION     0.46     0.88     8.04     0  01:58        0.88
  WS02006235           JUNCTION     0.48     0.89     8.05     0  01:58        0.88
  WS02006238           JUNCTION     0.51     0.91     8.05     0  01:57        0.90
  WS02006240           JUNCTION     0.41     0.77     8.06     0  01:58        0.77
  WS02006242           JUNCTION     0.46     0.81     8.08     0  02:17        0.81
  WS02006243           JUNCTION     0.35     0.68     8.10     0  02:51        0.68
  WS02006245           JUNCTION     0.34     0.65     8.14     0  02:51        0.65
  WS02006247           JUNCTION     0.35     0.66     8.16     0  02:51        0.66
  WS02006248           JUNCTION     0.31     0.60     8.19     0  02:51        0.60
  WS02006249           JUNCTION     0.34     0.62     8.21     0  02:50        0.62
  WS02006239           JUNCTION     0.46     0.84     8.05     0  01:58        0.84
  WS02006251           JUNCTION     0.32     0.65     8.32     0  02:50        0.65
  WS02006252           JUNCTION     0.26     0.59     8.83     0  04:20        0.58
  WS02006253           JUNCTION     0.35     0.68     8.32     0  02:50        0.67
  WS02006256           JUNCTION     0.83     1.19     8.13     0  06:30        1.19
  WS02004138           JUNCTION     0.08     0.14     7.39     0  05:40        0.14
  WS02004407           JUNCTION     0.20     0.36     6.67     0  01:59        0.36
  WS02006228           JUNCTION     0.71     1.30     7.95     0  01:58        1.29
  WS02006229           JUNCTION     0.69     1.33     8.02     0  01:58        1.33
  WS02006280           JUNCTION     0.08     0.25     8.52     0  01:55        0.25
  WS02006284           JUNCTION     0.38     0.64     9.04     0  01:55        0.64
  WS02006287           JUNCTION     0.12     0.38     9.33     0  01:54        0.38
  WSF200               JUNCTION     0.19     0.36     5.60     0  02:03        0.36
  HS02004901           JUNCTION     0.14     0.36    10.18     0  01:52        0.36
  HS02004881           JUNCTION     0.01     0.05     9.08     0  01:54        0.05
  HS02004876           JUNCTION     0.05     0.16     9.19     0  01:55        0.16
  HS02004870           JUNCTION     0.02     0.09     9.38     0  01:55        0.09
  HS02004862           JUNCTION     0.03     0.11     9.49     0  01:55        0.11
  HS02004856           JUNCTION     0.08     0.15     9.58     0  01:55        0.15
  HS02004852           JUNCTION     0.02     0.07     9.59     0  01:55        0.07
  HS02004848           JUNCTION     0.02     0.07     9.67     0  01:55        0.07
  HS02004842           JUNCTION     0.33     0.40     9.67     0  01:55        0.40
  HS02004837           JUNCTION     0.03     0.09     9.67     0  01:55        0.09
  HS02004830           JUNCTION     0.05     0.10     9.57     0  01:56        0.10
  HS02004824           JUNCTION     0.03     0.12     9.53     0  01:55        0.12
  HS02004817           JUNCTION     0.45     0.69     9.53     0  01:55        0.69
  HS02004807           JUNCTION     0.14     0.36     9.53     0  01:55        0.36
  HS02004802           JUNCTION     0.18     0.39     9.52     0  01:55        0.39
  HS02004799           JUNCTION     0.14     0.45     9.66     0  01:53        0.45
  HS02004792           JUNCTION     0.05     0.20     9.73     0  01:52        0.20
  HS02004788           JUNCTION     0.04     0.15    10.05     0  01:53        0.15
  HS02004785           JUNCTION     0.06     0.23    10.14     0  01:52        0.23
  HS02004777           JUNCTION     0.16     0.37    10.17     0  01:52        0.37
  HS02004770           JUNCTION     0.13     0.35    10.18     0  01:52        0.35
  HS02004480           JUNCTION     0.10     0.37     9.61     0  01:53        0.37
  HS02004479           JUNCTION     0.14     0.41     9.61     0  01:53        0.41
  HS02004478           JUNCTION     0.08     0.27     9.50     0  01:54        0.27
  YS02001745           JUNCTION     0.77     0.92     8.44     0  02:41        0.92
  YS02001748           JUNCTION     1.17     1.36     8.44     0  02:41        1.36
  YS02001751           JUNCTION     1.35     1.56     8.44     0  02:39        1.55
  YS02001754           JUNCTION     1.60     1.83     8.44     0  02:34        1.82
  YS02001762           JUNCTION     1.79     2.04     8.44     0  02:32        2.04
  YS02001765           JUNCTION     1.75     1.99     8.44     0  02:32        1.98
  YS02001767           JUNCTION     1.71     1.94     8.43     0  02:26        1.93
  YS02001770           JUNCTION     1.71     1.93     8.42     0  02:41        1.92
  YS02001774           JUNCTION     1.77     1.99     8.41     0  01:47        1.97
  YS02001779           JUNCTION     1.52     1.68     8.37     0  01:47        1.68
  YS02001882           JUNCTION     0.71     1.66     8.38     0  01:56        1.63
  YS02001884           JUNCTION     0.80     1.75     8.37     0  01:55        1.73
  YS02001759           JUNCTION     1.83     2.08     8.44     0  02:32        2.08
  YS02001887           JUNCTION     0.88     1.81     8.35     0  01:56        1.80
  YS02001890           JUNCTION     0.90     1.81     8.32     0  01:55        1.81
  YS02001898           JUNCTION     0.67     1.57     8.31     0  01:56        1.56
  YS02001901           JUNCTION     0.79     1.69     8.30     0  01:56        1.67
  YS02001904           JUNCTION     0.76     1.65     8.28     0  01:56        1.63
  YS02001907           JUNCTION     1.09     1.96     8.25     0  01:55        1.96
  YS02001910           JUNCTION     0.88     1.84     8.35     0  01:56        1.79
  YS02001915           JUNCTION     0.69     1.73     8.44     0  01:55        1.60
  YS02001918           JUNCTION     0.43     1.51     8.58     0  01:55        1.32
  YS02001619           JUNCTION     1.31     1.61     8.54     0  01:47        1.48
  YS02001629           JUNCTION     1.66     1.85     8.40     0  01:47        1.85
  YS02001641           JUNCTION     1.75     1.94     8.37     0  01:54        1.93
  YS02001644           JUNCTION     1.75     1.92     8.35     0  01:51        1.92
  YS02001652           JUNCTION     1.61     2.14     8.74     0  02:10        2.12
  YS02001655           JUNCTION     1.38     2.13     8.98     0  02:07        1.96
  YS02001920           JUNCTION     0.53     1.58     8.59     0  01:56        1.40
  YS02001923           JUNCTION     0.35     1.39     8.65     0  01:56        1.18
  YS02001926           JUNCTION     0.37     1.87     9.32     0  01:56        1.04
  YS02001929           JUNCTION     0.23     0.89     8.58     0  01:57        0.89
  YS02001658           JUNCTION     1.11     2.19     9.33     0  02:10        1.67
  YS02001661           JUNCTION     0.88     2.28     9.69     0  02:10        1.39
  YS02001664           JUNCTION     0.40     0.56     8.49     0  04:07        0.56
  YS02001622           JUNCTION     1.33     1.62     8.52     0  01:48        1.50
  YS02001633           JUNCTION     1.75     1.95     8.40     0  01:54        1.94
  YS02001649           JUNCTION     1.80     2.05     8.44     0  02:04        2.05
  YS02001757           JUNCTION     1.92     2.18     8.44     0  02:35        2.17
  YS02001895           JUNCTION     0.67     1.57     8.31     0  02:28        1.56
  YS02001625           JUNCTION     1.61     1.78     8.38     0  01:48        1.78
  YS02163301           JUNCTION     1.69     1.88     8.40     0  01:55        1.88
  YS02163601           JUNCTION     1.79     2.00     8.39     0  01:54        1.98
  YS02164001           JUNCTION     1.73     1.93     8.39     0  01:54        1.91
  YS02001647           JUNCTION     1.59     1.81     8.42     0  02:07        1.80
  YSB1154              JUNCTION     0.28     0.56     9.62     0  01:53        0.56
  YSB6556              JUNCTION     0.17     0.44     9.61     0  01:53        0.44
  YSB1174              JUNCTION     0.23     0.50     9.61     0  01:53        0.50
  YSB1171              JUNCTION     0.43     0.71     9.61     0  01:53        0.71
  YS02006553           JUNCTION     1.09     1.97     8.25     0  02:11        1.96
  YS02006561           JUNCTION     0.43     1.14     7.80     0  01:55        1.08
  YS02006556           JUNCTION     1.06     1.93     8.24     0  01:55        1.93
  YS02006558           JUNCTION     1.10     1.97     8.24     0  02:16        1.97
  YS02001783           JUNCTION     0.74     2.40     8.54     0  01:51        1.47
  YS02001784           JUNCTION     0.76     2.04     8.11     0  01:51        1.41
  YS02001786           JUNCTION     0.71     1.81     7.84     0  01:51        1.26
  YS02001788           JUNCTION     0.68     1.68     7.65     0  01:51        1.13
  YS02001790           JUNCTION     0.89     1.96     7.60     0  01:50        1.29
  YS02001791           JUNCTION     0.95     2.02     7.49     0  01:50        1.28
  YS02001793           JUNCTION     1.45     1.97     6.80     0  01:50        1.80
  WS02004139           JUNCTION     0.43     0.54     5.45     0  02:05        0.54
  WSC                  OUTFALL      0.23     0.38     1.05     0  02:05        0.38
  3                    OUTFALL      0.03     0.19     6.19     0  06:30        0.19
  4                    OUTFALL      0.01     0.12     7.12     0  02:50        0.12
  5                    OUTFALL      0.00     0.00     5.00     0  00:00        0.00
  JK-storage           STORAGE      5.15     5.80     6.60     0  01:50        5.80
  CC-storage           STORAGE      1.17     1.42     8.42     0  03:13        1.42
  XR-storage           STORAGE      7.63     7.72     5.72     0  00:42        7.72
  
  
  *******************
  Node Inflow Summary
  *******************
  
  -------------------------------------------------------------------------------------------------
                                  Maximum  Maximum                  Lateral       Total        Flow
                                  Lateral    Total  Time of Max      Inflow      Inflow     Balance
                                   Inflow   Inflow   Occurrence      Volume      Volume       Error
  Node                 Type           LPS      LPS  days hr:min    10^6 ltr    10^6 ltr     Percent
  -------------------------------------------------------------------------------------------------
  WS02001211           JUNCTION      7.35   188.46     0  05:40       0.207        2.13       0.610
  WS02001212           JUNCTION      0.00   181.78     0  05:41           0        2.13       0.234
  WS02001213           JUNCTION      0.00   179.72     0  05:41           0        2.14       0.452
  WS02003069           JUNCTION      0.32   880.38     0  02:03     0.00902        9.18       0.096
  WS02003072           JUNCTION      0.00   880.46     0  02:04           0        9.18       0.146
  WS02003073           JUNCTION      1.82   882.42     0  02:05      0.0514        9.21       0.147
  WS02003060           JUNCTION     16.53   880.12     0  02:04       0.466        9.23       0.088
  WS02003066           JUNCTION      0.00   764.18     0  02:01           0        6.66       0.030
  WS02003059           JUNCTION      0.00   179.95     0  05:42           0        2.17       0.947
  WS02003067           JUNCTION      0.00   764.13     0  02:01           0        6.66       0.078
  WS02004401           JUNCTION      0.00   765.00     0  01:59           0         6.8       0.209
  WS02004402           JUNCTION      0.00   765.02     0  01:59           0        6.79       0.204
  WS02004403           JUNCTION      0.00   765.08     0  01:59           0        6.77       0.192
  WS02004404           JUNCTION      0.16   765.85     0  01:59     0.00457        6.76       0.153
  WS02004406           JUNCTION      0.00   765.35     0  01:59           0        6.74       0.373
  WS02004409           JUNCTION      0.00   765.23     0  01:59           0        6.71       0.092
  WS02004410           JUNCTION      0.00   764.60     0  02:00           0         6.7       0.114
  WS02004411           JUNCTION      0.00   764.26     0  02:00           0         6.7       0.127
  WS02004412           JUNCTION      0.00   764.12     0  02:00           0        6.69       0.153
  WS02004413           JUNCTION      0.00   764.11     0  02:01           0        6.68       0.252
  WS02004405           JUNCTION      0.04   766.70     0  01:59     0.00107        6.75       0.229
  WS02006109           JUNCTION      1.23   742.47     0  01:58      0.0347        6.79       0.239
  WS02006110           JUNCTION      0.00   742.56     0  01:58           0        6.78       0.240
  WS02006111           JUNCTION      0.00   743.48     0  01:51           0        6.75       0.043
  WS02006112           JUNCTION     26.81   765.02     0  01:59      0.0948        6.85       0.325
  WS02006113           JUNCTION      0.00   742.43     0  01:58           0        6.76       0.105
  WS02006115           JUNCTION      0.00   765.02     0  01:59           0        6.82       0.171
  WS02006116           JUNCTION      0.00   764.94     0  01:59           0        6.81       0.167
  WS02006230           JUNCTION     10.28   361.48     0  06:39        0.29        4.12       0.255
  WS02006231           JUNCTION      0.00   353.16     0  06:39           0        3.83       0.257
  WS02006232           JUNCTION      0.00   354.55     0  06:39           0        3.84       0.362
  WS02006234           JUNCTION      0.00   356.63     0  06:38           0        3.84       0.160
  WS02006235           JUNCTION      0.00   357.65     0  06:38           0        3.92       0.215
  WS02006238           JUNCTION      0.00   335.99     0  06:41           0        3.08       0.101
  WS02006240           JUNCTION      0.00   335.84     0  06:41           0        3.04       0.361
  WS02006242           JUNCTION      0.00   336.53     0  06:41           0        3.04       0.433
  WS02006243           JUNCTION      0.00   344.29     0  04:21           0        3.02       0.013
  WS02006245           JUNCTION      0.00   348.57     0  04:21           0        3.04       0.535
  WS02006247           JUNCTION      0.00   352.43     0  04:21           0        3.05       0.245
  WS02006248           JUNCTION      0.00   356.08     0  04:20           0        3.05       0.009
  WS02006249           JUNCTION      0.00   440.71     0  02:50           0        3.18       0.495
  WS02006239           JUNCTION      0.00   337.37     0  06:41           0        3.05      -0.069
  WS02006251           JUNCTION      0.08   442.20     0  02:50     0.00217        3.22       0.239
  WS02006252           JUNCTION      0.00   399.94     0  02:50           0        2.65       0.018
  WS02006253           JUNCTION      3.66   142.88     0  01:54      0.0117       0.568       0.666
  WS02006256           JUNCTION      0.00   599.88     0  06:30           0        1.84       0.136
  WS02004138           JUNCTION      0.00   189.98     0  05:40           0        1.91       0.006
  WS02004407           JUNCTION      0.00   765.31     0  01:59           0        6.71       0.047
  WS02006228           JUNCTION      0.00   741.26     0  01:58           0        6.77       0.180
  WS02006229           JUNCTION      0.00   741.39     0  01:57           0         6.8       0.209
  WS02006280           JUNCTION      0.00   656.08     0  01:55           0         2.7       0.003
  WS02006284           JUNCTION      0.10   655.99     0  01:55      0.0027         2.7       0.038
  WS02006287           JUNCTION      0.00   655.83     0  01:54           0         2.7       0.027
  WSF200               JUNCTION      0.00   764.19     0  02:01           0        6.65       0.018
  HS02004901           JUNCTION     32.57    32.57     0  01:50       0.114       0.115       1.560
  HS02004881           JUNCTION     13.82   139.59     0  01:54      0.0479       0.529       0.050
  HS02004876           JUNCTION     24.51   126.37     0  01:54      0.0923       0.482       0.114
  HS02004870           JUNCTION     25.44   102.13     0  01:54      0.0907        0.39       0.028
  HS02004862           JUNCTION     23.11    77.53     0  01:55       0.099       0.299       0.058
  HS02004856           JUNCTION     19.02    54.51     0  01:55      0.0682       0.202       0.720
  HS02004852           JUNCTION      0.00    36.10     0  01:55           0       0.134       0.042
  HS02004848           JUNCTION     50.49    50.49     0  01:57       0.223       0.223       0.021
  HS02004842           JUNCTION      0.00    15.55     0  02:06           0       0.102      14.561
  HS02004837           JUNCTION     49.08    62.50     0  01:55       0.337       0.426       0.191
  HS02004830           JUNCTION      0.15    62.61     0  01:55     0.00423       0.416       0.298
  HS02004824           JUNCTION     60.06   122.21     0  01:58       0.286       0.702       0.077
  HS02004817           JUNCTION      0.60   124.03     0  01:59      0.0169       0.718       2.377
  HS02004807           JUNCTION     47.25   168.29     0  01:57       0.166       0.868       0.499
  HS02004802           JUNCTION      0.00   169.25     0  01:58           0       0.865       0.463
  HS02004799           JUNCTION     37.43   414.55     0  01:52       0.135        1.57       0.166
  HS02004792           JUNCTION    160.44   377.32     0  01:52       0.598        1.44       0.028
  HS02004788           JUNCTION     53.14   218.55     0  01:52        0.24       0.839       0.047
  HS02004785           JUNCTION      0.15   165.60     0  01:52     0.00423       0.601       0.083
  HS02004777           JUNCTION      0.03   165.80     0  01:51    0.000846       0.601       0.872
  HS02004770           JUNCTION    134.74   166.65     0  01:51        0.49       0.602       0.516
  HS02004480           JUNCTION      0.00   492.23     0  01:53           0        1.85       0.064
  HS02004479           JUNCTION      0.00    78.00     0  01:53           0       0.292       0.252
  HS02004478           JUNCTION      0.00   655.79     0  01:54           0         2.7       0.013
  YS02001745           JUNCTION    386.89   386.89     0  02:16        3.55        3.55       0.318
  YS02001748           JUNCTION      0.04   396.79     0  02:16     0.00127        3.54       0.645
  YS02001751           JUNCTION      0.01   396.72     0  02:16     0.00031        3.52       0.676
  YS02001754           JUNCTION      0.26   397.19     0  02:16     0.00733         3.5       0.705
  YS02001762           JUNCTION      0.00   430.27     0  02:02           0        2.19       0.967
  YS02001765           JUNCTION      0.00   430.08     0  02:03           0        2.19       1.114
  YS02001767           JUNCTION      0.54   430.42     0  02:03      0.0151        2.21       1.638
  YS02001770           JUNCTION    491.42   607.91     0  02:45        3.94        4.69       0.671
  YS02001774           JUNCTION      0.00   607.93     0  02:45           0        3.22       0.778
  YS02001779           JUNCTION      0.01   607.95     0  02:45    0.000141        3.19       0.477
  YS02001882           JUNCTION      0.00    56.72     0  01:52           0      0.0205       9.533
  YS02001884           JUNCTION      0.00   104.67     0  01:52           0      0.0561      11.073
  YS02001759           JUNCTION    476.91   859.00     0  02:03        3.62        5.02       0.456
  YS02001887           JUNCTION    605.93   605.99     0  02:15        4.13        4.16       0.191
  YS02001890           JUNCTION      0.00   606.32     0  02:16           0        4.12       0.213
  YS02001898           JUNCTION      0.00   517.50     0  02:27           0           4       0.050
  YS02001901           JUNCTION      0.00   517.53     0  02:27           0           4       0.165
  YS02001904           JUNCTION      0.00   517.52     0  02:27           0           4       0.134
  YS02001907           JUNCTION      0.00  1105.80     0  01:57           0        9.14       0.251
  YS02001910           JUNCTION      0.00   597.59     0  01:57           0        5.16       0.217
  YS02001915           JUNCTION    345.21   597.78     0  01:57        2.96        5.21       0.106
  YS02001918           JUNCTION      0.00   332.04     0  01:57           0        2.29       0.053
  YS02001619           JUNCTION    336.52   336.52     0  02:16        2.95        2.95       0.412
  YS02001629           JUNCTION      0.00   239.93     0  01:47           0        1.45       2.008
  YS02001641           JUNCTION      0.00   425.51     0  01:51           0        4.86       0.434
  YS02001644           JUNCTION    367.62  1403.17     0  02:44        3.42        13.5       0.196
  YS02001652           JUNCTION      0.00   476.20     0  02:14           0        3.04       0.765
  YS02001655           JUNCTION      0.15   476.01     0  02:14     0.00434        3.07       0.823
  YS02001920           JUNCTION      2.87   332.10     0  01:57      0.0809        2.26       0.115
  YS02001923           JUNCTION      0.04   314.94     0  01:56     0.00106        2.16       0.047
  YS02001926           JUNCTION      0.05   339.36     0  01:55     0.00147        2.14       0.138
  YS02001929           JUNCTION    185.81   206.18     0  01:55        2.12        2.13       0.033
  YS02001658           JUNCTION      0.00   490.79     0  02:14           0        3.09       0.770
  YS02001661           JUNCTION      0.00   772.34     0  02:03           0         3.4       0.089
  YS02001664           JUNCTION    437.54   437.54     0  02:16         3.1        3.41       0.175
  YS02001622           JUNCTION      0.00   336.88     0  02:16           0        2.94       1.090
  YS02001633           JUNCTION    373.18   425.40     0  01:51        3.53        4.93       0.651
  YS02001649           JUNCTION      0.00  1006.95     0  01:58           0        7.18       0.514
  YS02001757           JUNCTION      0.00  2128.04     0  02:02           0        9.85       0.943
  YS02001895           JUNCTION      0.00   517.50     0  02:27           0           4       0.117
  YS02001625           JUNCTION      0.00   336.61     0  02:16           0        2.91       1.355
  YS02163301           JUNCTION      0.00   235.37     0  01:48           0        1.45       1.672
  YS02163601           JUNCTION      0.11   425.40     0  01:51      0.0031        4.87       0.618
  YS02164001           JUNCTION      0.00   425.23     0  01:51           0        4.85       0.409
  YS02001647           JUNCTION      0.00   680.70     0  02:44           0        6.36       0.446
  YSB1154              JUNCTION     43.61    43.61     0  01:53       0.163       0.164       0.888
  YSB6556              JUNCTION      0.00    43.63     0  01:53           0       0.165       0.764
  YSB1174              JUNCTION     35.87    35.87     0  01:50        0.12        0.12       1.078
  YSB1171              JUNCTION      0.00    78.02     0  01:53           0       0.291       2.227
  YS02006553           JUNCTION      0.00   683.04     0  03:22           0        7.11       0.207
  YS02006561           JUNCTION      0.00   968.43     0  02:14           0        10.9       0.005
  YS02006556           JUNCTION      0.00   683.34     0  03:22           0        7.12       0.144
  YS02006558           JUNCTION    522.52   968.72     0  02:13        3.81        10.9       0.043
  YS02001783           JUNCTION      0.00   968.47     0  02:16           0        10.9       0.065
  YS02001784           JUNCTION      1.06   969.39     0  02:15      0.0299        10.9       0.099
  YS02001786           JUNCTION      0.06   969.40     0  02:15     0.00159        10.9       0.124
  YS02001788           JUNCTION      0.07   969.54     0  02:14       0.002        10.9       0.125
  YS02001790           JUNCTION      0.15   969.74     0  02:14     0.00437        10.9       0.153
  YS02001791           JUNCTION      0.00   969.65     0  02:14           0        10.8       0.133
  YS02001793           JUNCTION      0.00   970.09     0  02:14           0        10.8       0.142
  WS02004139           JUNCTION      0.32   189.31     0  05:40     0.00905        1.92       0.719
  WSC                  OUTFALL       0.00   882.62     0  02:05           0         9.2       0.000
  3                    OUTFALL       0.00   459.05     0  06:30           0       0.954       0.000
  4                    OUTFALL       0.00   131.23     0  02:50           0       0.119       0.000
  5                    OUTFALL       0.00     0.00     0  00:00           0           0       0.000 ltr
  JK-storage           STORAGE       0.00   975.27     0  01:49           0          11       0.176
  CC-storage           STORAGE       0.00  2128.09     0  02:02           0        6.67       0.970
  XR-storage           STORAGE     844.69   844.69     0  03:01        12.1        12.7       0.002
  
  
  **********************
  Node Surcharge Summary
  **********************
  
  Surcharging occurs when water rises above the top of the highest conduit.
  ---------------------------------------------------------------------
                                               Max. Height   Min. Depth
                                   Hours       Above Crown    Below Rim
  Node                 Type      Surcharged         Meters       Meters
  ---------------------------------------------------------------------
  WS02004401           JUNCTION        0.47          0.071        1.589
  WS02004402           JUNCTION        0.51          0.077        1.663
  WS02004403           JUNCTION        0.51          0.071        1.959
  WS02004404           JUNCTION        0.71          0.130        2.650
  WS02004406           JUNCTION        0.63          0.083        2.367
  WS02004405           JUNCTION        0.66          0.111        2.689
  WS02006109           JUNCTION        1.47          0.377        1.443
  WS02006110           JUNCTION        1.32          0.156        1.694
  WS02006112           JUNCTION        1.37          0.332        1.348
  WS02006115           JUNCTION        0.06          0.004        2.246
  WS02006116           JUNCTION        0.17          0.015        2.275
  WS02006230           JUNCTION        0.65          0.202        1.368
  WS02006231           JUNCTION        0.69          0.208        1.322
  WS02006232           JUNCTION        1.34          0.307        1.173
  WS02006234           JUNCTION        0.78          0.163        1.077
  WS02006235           JUNCTION        0.99          0.178        1.112
  WS02006238           JUNCTION        1.10          0.189        1.241
  WS02006240           JUNCTION        0.57          0.058        1.332
  WS02006242           JUNCTION        0.83          0.078        0.742
  WS02006239           JUNCTION        0.76          0.104        1.186
  WS02006252           JUNCTION        0.64          0.188        0.912
  WS02006228           JUNCTION        1.46          0.471        1.729
  YS02001748           JUNCTION        5.99          0.285        0.905
  YS02001751           JUNCTION        6.02          0.563        0.637
  YS02001754           JUNCTION        6.05          0.782        0.368
  YS02001762           JUNCTION        6.08          1.039        0.111
  YS02001765           JUNCTION        6.08          0.989        0.111
  YS02001767           JUNCTION        6.07          0.943        0.087
  YS02001770           JUNCTION        6.07          0.896        0.024
  YS02001774           JUNCTION        6.08          0.986        0.064
  YS02001779           JUNCTION        6.04          0.680        0.000
  YS02001882           JUNCTION        1.78          0.662        0.168
  YS02001884           JUNCTION        1.81          0.691        0.179
  YS02001759           JUNCTION        6.09          1.079        0.131
  YS02001887           JUNCTION        1.88          0.764        0.186
  YS02001890           JUNCTION        1.91          0.760        0.000
  YS02001898           JUNCTION        1.75          0.545        0.195
  YS02001901           JUNCTION        1.86          0.689        0.181
  YS02001904           JUNCTION        1.83          0.650        0.200
  YS02001907           JUNCTION        2.28          0.950        0.000
  YS02001910           JUNCTION        1.95          0.844        0.256
  YS02001915           JUNCTION        1.78          0.726        0.274
  YS02001918           JUNCTION        1.57          0.512        0.298
  YS02001619           JUNCTION        6.02          0.610        0.000
  YS02001629           JUNCTION        6.02          0.470        0.000
  YS02001641           JUNCTION        6.08          0.938        0.162
  YS02001644           JUNCTION        6.08          0.920        0.000
  YS02001652           JUNCTION        6.05          1.109        0.021
  YS02001655           JUNCTION        6.02          1.131        0.069
  YS02001920           JUNCTION        1.60          0.585        0.555
  YS02001923           JUNCTION        0.01          0.184        0.636
  YS02001926           JUNCTION        0.01          0.874        0.026
  YS02001658           JUNCTION        5.99          1.187        0.113
  YS02001661           JUNCTION        0.17          1.213        0.177
  YS02001622           JUNCTION        6.02          0.620        0.000
  YS02001633           JUNCTION        6.08          0.931        0.129
  YS02001649           JUNCTION        6.08          1.050        0.000
  YS02001757           JUNCTION        6.12          1.177        0.033
  YS02001895           JUNCTION        1.76          0.567        0.183
  YS02001625           JUNCTION        6.05          0.780        0.000
  YS02163301           JUNCTION        6.07          0.885        0.145
  YS02163601           JUNCTION        6.09          0.996        0.084
  YS02164001           JUNCTION        6.08          0.929        0.171
  YS02001647           JUNCTION        6.05          0.806        0.094
  YS02006553           JUNCTION        2.34          0.969        0.221
  YS02006561           JUNCTION        1.67          0.335        0.815
  YS02006556           JUNCTION        2.12          0.892        0.458
  YS02006558           JUNCTION        2.09          0.873        0.527
  YS02001783           JUNCTION        2.15          1.600        0.000
  YS02001784           JUNCTION        2.23          1.244        0.246
  YS02001786           JUNCTION        2.15          1.011        0.419
  YS02001788           JUNCTION        2.14          0.875        0.605
  YS02001790           JUNCTION        5.07          1.157        0.000
  YS02001791           JUNCTION        5.16          1.215        0.705
  YS02001793           JUNCTION        5.49          0.972        1.628
  
  
  *********************
  Node Flooding Summary
  *********************
  
  Flooding refers to all water that overflows a node, whether it ponds or not.
  --------------------------------------------------------------------------
                                                             Total   Maximum
                                 Maximum   Time of Max       Flood    Ponded
                        Hours       Rate    Occurrence      Volume     Depth
  Node                 Flooded       LPS   days hr:min    10^6 ltr    Meters
  --------------------------------------------------------------------------
  YS02001779              3.58    607.95      0  02:45       3.173     0.000
  YS02001890              0.59     90.00      0  02:16       0.102     0.000
  YS02001907              1.41    582.74      0  02:14       2.017     0.000
  YS02001619              0.01     64.55      0  01:48       0.000     0.000
  YS02001629              0.01    182.01      0  01:47       0.001     0.000
  YS02001644              5.59   1403.15      0  02:44      12.352     0.000
  YS02001622              0.01     23.79      0  01:48       0.000     0.000
  YS02001649              0.03     37.37      0  02:07       0.001     0.000
  YS02001625              1.97    325.52      0  02:15       1.441     0.000
  YS02001783              0.01    138.81      0  01:51       0.000     0.000
  YS02001790              0.01    173.59      0  01:50       0.000     0.000
  JK-storage              4.77    968.76      0  02:20       8.844     0.000
  XR-storage              7.13    822.48      0  02:50       9.872     0.000
  
  
  **********************
  Storage Volume Summary
  **********************
  
  --------------------------------------------------------------------------------------------------
                         Average     Avg  Evap Exfil       Maximum     Max    Time of Max    Maximum
                          Volume    Pcnt  Pcnt  Pcnt        Volume    Pcnt     Occurrence    Outflow
  Storage Unit           1000 m3    Full  Loss  Loss       1000 m3    Full    days hr:min        LPS
  --------------------------------------------------------------------------------------------------
  JK-storage               0.259      89     0     0         0.291     100       0  01:50     599.88
  CC-storage               3.259      21     0     0         3.959      25       0  03:13     399.94
  XR-storage               0.916      99     0     0         0.926     100       0  00:42     189.98
  
  
  ***********************
  Outfall Loading Summary
  ***********************
  
  -----------------------------------------------------------
                         Flow       Avg       Max       Total
                         Freq      Flow      Flow      Volume
  Outfall Node           Pcnt       LPS       LPS    10^6 ltr
  -----------------------------------------------------------
  WSC                   99.99    377.14    882.62       9.200
  3                     37.06    133.33    459.05       0.954
  4                     20.85     27.37    131.23       0.119
  5                      0.00      0.00      0.00       0.000
  -----------------------------------------------------------
  System                39.48    537.84   1136.58      10.273
  
  
  ********************
  Link Flow Summary
  ********************
  
  -----------------------------------------------------------------------------
                                 Maximum  Time of Max   Maximum    Max/    Max/
                                  |Flow|   Occurrence   |Veloc|    Full    Full
  Link                 Type          LPS  days hr:min     m/sec    Flow   Depth
  -----------------------------------------------------------------------------
  WS02003066WSF200     CONDUIT    764.19     0  02:01      3.10    0.13    0.27
  WS02006287WS02006284 CONDUIT    655.89     0  01:55      2.36    0.30    0.38
  WS02006284WS02006280 CONDUIT    656.08     0  01:55      2.59    0.27    0.36
  WS02006280WS02006229 CONDUIT    656.09     0  01:55      4.21    0.14    0.25
  WS02006229WS02006228 CONDUIT    741.26     0  01:58      1.47    2.46    1.00
  WS02006256WS02006235 CONDUIT    166.25     0  00:01      2.58    1.76    1.00
  WS02006253WS02006251 CONDUIT    142.07     0  01:55      0.70    0.43    0.94
  WS02006252WS02006251 CONDUIT    399.98     0  02:50      3.18    1.47    1.00
  WS02006251WS02006249 CONDUIT    440.71     0  02:50      1.21    1.27    0.90
  WS02006249WS02006248 CONDUIT    356.08     0  04:20      1.17    1.95    0.85
  WS02006248WS02006247 CONDUIT    352.43     0  04:21      1.15    0.77    0.90
  WS02006247WS02006245 CONDUIT    348.57     0  04:21      1.12    2.76    0.93
  WS02006245WS02006243 CONDUIT    344.29     0  04:21      1.17    1.02    0.95
  WS02006243WS02006242 CONDUIT    336.53     0  06:41      1.05    0.72    0.99
  WS02006242WS02006240 CONDUIT    335.84     0  06:41      0.99    1.33    1.00
  WS02006240WS02006239 CONDUIT    337.37     0  06:41      1.03    1.06    1.00
  WS02006239WS02006238 CONDUIT    335.99     0  06:41      0.94    1.08    1.00
  WS02006238WS02006235 CONDUIT    335.50     0  06:42      1.25    0.75    1.00
  WS02006235WS02006234 CONDUIT    356.63     0  06:38      1.00    3.76    1.00
  WS02006234WS02006232 CONDUIT    354.55     0  06:39      1.13    0.72    1.00
  WS02006232WS02006231 CONDUIT    353.16     0  06:39      1.00    0.74    1.00
  WS02006231WS02006230 CONDUIT    351.20     0  06:39      1.33    5.33    1.00
  WS02006230WS02006229 CONDUIT    358.81     0  06:39      0.93    7.99    1.00
  WS02006228WS02006109 CONDUIT    741.24     0  01:58      1.47    3.24    1.00
  WS02006116WS02004401 CONDUIT    765.00     0  01:59      0.97    1.05    1.00
  WS02006115WS02006116 CONDUIT    764.94     0  01:59      0.97    0.98    1.00
  WS02006113WS02006111 CONDUIT    743.48     0  01:51      2.63    0.89    0.68
  WS02006112WS02006115 CONDUIT    765.02     0  01:59      0.97    0.45    1.00
  WS02006111WS02006112 CONDUIT    741.87     0  01:59      1.74    0.35    0.82
  WS02006110WS02006113 CONDUIT    742.43     0  01:58      1.63    0.68    0.85
  WS02006109WS02006110 CONDUIT    742.56     0  01:58      1.48    1.43    1.00
  WS02004411WS02004412 CONDUIT    764.12     0  02:00      1.11    1.09    0.82
  WS02004401WS02004402 CONDUIT    765.02     0  01:59      0.97    0.92    1.00
  WS02004413WS02003067 CONDUIT    764.13     0  02:01      1.35    0.33    0.68
  WS02004412WS02004413 CONDUIT    764.11     0  02:01      1.04    0.51    0.89
  WS02004410WS02004411 CONDUIT    764.26     0  02:00      1.10    1.04    0.82
  WS02004409WS02004410 CONDUIT    764.60     0  02:00      1.10    0.99    0.82
  WS02004407WS02004409 CONDUIT    765.23     0  01:59      1.61    0.27    0.59
  WS02004406WS02004407 CONDUIT    765.31     0  01:59      1.35    0.34    0.68
  WS02004405WS02004406 CONDUIT    765.35     0  01:59      0.97    1.51    1.00
  WS02004404WS02004405 CONDUIT    766.66     0  01:59      0.98    7.51    1.00
  WS02004403WS02004404 CONDUIT    765.69     0  01:59      0.97    0.55    1.00
  WS02004402WS02004403 CONDUIT    765.08     0  01:59      0.97    1.10    1.00
  WS02004139WS02001211 CONDUIT    181.11     0  05:40      0.53    0.23    0.44
  WS02004138WS02004139 CONDUIT    188.99     0  05:40      2.39    0.04    0.31
  WS02003067WS02003066 CONDUIT    764.18     0  02:01      1.47    0.24    0.47
  WS02001213WS02003059 CONDUIT    179.95     0  05:42      0.41    0.30    0.70
  WS02001212WS02001213 CONDUIT    179.72     0  05:41      1.00    0.28    0.36
  WS02001211WS02001212 CONDUIT    181.78     0  05:41      0.52    0.14    0.50
  WS02003072WS02003073 CONDUIT    880.60     0  02:05      1.69    1.90    0.47
  WS02003069WS02003072 CONDUIT    880.46     0  02:04      1.59    0.42    0.49
  WS02003060WS02003069 CONDUIT    880.06     0  02:03      1.84    0.34    0.44
  WS02003059WS02003060 CONDUIT    179.88     0  05:43      0.56    0.12    0.62
  HS02004901HS02004770 CONDUIT     31.96     0  01:52      0.09    0.12    0.51
  HS02004876HS02004881 CONDUIT    126.38     0  01:55      1.20    1.34    0.15
  HS02004870HS02004876 CONDUIT    102.10     0  01:55      0.82    0.07    0.18
  HS02004842HS02004848 CONDUIT     15.55     0  02:06      0.07    0.01    0.33
  HS02004837HS02004842 CONDUIT     15.96     0  02:07      0.41    0.01    0.35
  HS02004830HS02004837 CONDUIT     62.46     0  01:55      0.66    0.06    0.14
  HS02004824HS02004830 CONDUIT     62.57     0  01:56      0.62    0.08    0.16
  HS02004817HS02004824 CONDUIT    123.43     0  01:59      0.31    0.06    0.58
  HS02004770HS02004777 CONDUIT    165.77     0  01:51      0.46    0.30    0.52
  HS02004799HS02004480 CONDUIT    414.31     0  01:53      1.02    0.52    0.58
  HS02004792HS02004799 CONDUIT    377.23     0  01:52      1.15    0.23    0.47
  HS02004788HS02004792 CONDUIT    218.45     0  01:53      1.24    0.14    0.25
  HS02004785HS02004788 CONDUIT    165.55     0  01:53      0.86    1.25    0.27
  HS02004777HS02004785 CONDUIT    165.45     0  01:52      0.54    0.20    0.44
  HS02004480HS02004478 CONDUIT    492.16     0  01:53      1.52    2.07    0.46
  HS02004479HS02004480 CONDUIT     78.30     0  01:54      0.27    0.08    0.55
  HS02004862HS02004870 CONDUIT     77.53     0  01:55      0.79    0.08    0.14
  HS02004848HS02004852 CONDUIT     36.10     0  01:55      0.52    0.04    0.10
  HS02004856HS02004862 CONDUIT     54.47     0  01:55      0.59    0.05    0.13
  HS02004852HS02004856 CONDUIT     36.15     0  01:56      0.33    0.04    0.16
  HS02004802HS02004478 CONDUIT    170.22     0  01:58      0.53    0.15    0.47
  HS02004478WS02006287 CONDUIT    655.83     0  01:54      2.08    0.18    0.35
  HS02004817HS02004807 CONDUIT    125.36     0  01:59      0.24    0.07    0.75
  HS02004807HS02004802 CONDUIT    169.25     0  01:58      0.47    0.32    0.53
  YS02001759YS02001757 CONDUIT    858.97     0  02:03      1.09    0.61    1.00
  YS02001762YS02001759 CONDUIT    430.39     0  02:02      0.55    0.50    1.00
  YS02001765YS02001762 CONDUIT    430.27     0  02:02      0.55    0.40    1.00
  YS02001770YS02001767 CONDUIT    429.88     0  02:03      0.55    1.70    1.00
  YS02001774YS02001770 CONDUIT    607.93     0  02:45      0.77    0.39    1.00
  YS02001779YS02001774 CONDUIT    607.94     0  02:45      0.77    0.31    1.00
  YS02001649YS02001757 CONDUIT   1006.97     0  01:58      1.28    0.61    1.00
  YS02001767YS02001765 CONDUIT    430.08     0  02:03      0.55    0.54    1.00
  YS02006561YS02001783 CONDUIT    968.47     0  02:16      2.13    0.50    1.00
  YS02001783YS02001784 CONDUIT    968.33     0  02:15      1.93    1.33    1.00
  YS02001784YS02001785 CONDUIT    969.35     0  02:15      1.93    2.26    1.00
  YS02001788YS02001790 CONDUIT    969.59     0  02:14      2.32    0.71    1.00
  YS02001790YS02001791 CONDUIT    969.65     0  02:14      2.82    1.06    1.00
  YS02001791YS02001793 CONDUIT    970.09     0  02:14      5.44    0.42    1.00
  YS02001910YS02001907 CONDUIT    597.87     0  01:57      0.76    0.34    1.00
  YS02001786YS02001788 CONDUIT    969.47     0  02:14      2.23    1.87    1.00
  YS02001915YS02001910 CONDUIT    597.59     0  01:57      0.76    0.30    1.00
  YS02001918YS02001915 CONDUIT    332.73     0  01:57      0.46    0.18    1.00
  YS02001923YS02001920 CONDUIT    329.23     0  01:57      0.78    0.15    1.00
  YS02001926YS02001923 CONDUIT    296.08     0  01:56      0.87    0.42    1.00
  YS02001929YS02001926 CONDUIT    229.37     0  01:57      0.93    0.11    0.94
  YS02001920YS02001918 CONDUIT    332.04     0  01:57      0.75    0.32    1.00
  YS02001629YS02163301 CONDUIT    235.37     0  01:48      0.30    0.29    1.00
  YS02001619YS02001622 CONDUIT    336.88     0  02:16      0.76    0.50    1.00
  YS02001622YS02001625 CONDUIT    336.61     0  02:16      0.43    0.18    1.00
  YS02001625YS02001629 CONDUIT    210.18     0  01:47      0.31    0.10    1.00
  YS02163301YS02001633 CONDUIT    236.11     0  01:48      0.30    0.22    1.00
  YS02163601YS02164001 CONDUIT    425.23     0  01:51      0.54    0.38    1.00
  YS02164001YS02001641 CONDUIT    425.51     0  01:51      0.54    0.58    1.00
  YS02001641YS02001644 CONDUIT    424.70     0  01:51      0.54    1.37    1.00
  YS02001647YS02001649 CONDUIT    680.70     0  02:44      0.87    0.36    1.00
  YS02006553YS02006556 CONDUIT    683.34     0  03:22      0.87    0.58    1.00
  YS02006556YS02006558 CONDUIT    684.07     0  03:22      0.87    0.54    1.00
  YSB6556YSB1171       CONDUIT     43.97     0  01:54      0.13    0.05    0.82
  YS02001907YS02006553 CONDUIT    683.04     0  03:22      0.76    0.80    1.00
  YS02006558YS02006561 CONDUIT    968.43     0  02:14      3.43    2.14    1.00
  YS02001633YS02163601 CONDUIT    425.29     0  01:51      0.54    0.45    1.00
  YS02001644YS02001647 CONDUIT    680.76     0  02:44      0.87    0.40    1.00
  YS02001745YS02001748 CONDUIT    396.74     0  02:16      1.73    0.15    0.96
  YS02001748YS02001751 CONDUIT    396.71     0  02:16      1.25    0.20    1.00
  YS02001751YS02001754 CONDUIT    396.93     0  02:16      1.03    0.19    1.00
  YS02001754YS02001757 CONDUIT    397.16     0  02:16      0.51    0.16    1.00
  YS02001882YS02001884 CONDUIT     56.72     0  01:52      0.12    0.07    1.00
  YS02001884YS02001887 CONDUIT    104.67     0  01:52      0.13    0.14    1.00
  YS02001890YS02001895 CONDUIT    517.50     0  02:27      0.66    0.24    1.00
  YS02001895YS02001898 CONDUIT    517.50     0  02:27      0.66    0.90    1.00
  YS02001898YS02001901 CONDUIT    517.53     0  02:27      0.66    0.33    1.00
  YS02001901YS02001904 CONDUIT    517.52     0  02:27      0.66    0.80    1.00
  YS02001904YS02001907 CONDUIT    517.42     0  02:27      0.66    0.18    1.00
  YS02001887YS02001890 CONDUIT    606.32     0  02:16      0.77    1.04    1.00
  YS02001652YS02001649 CONDUIT    476.85     0  02:14      0.61    0.24    1.00
  YS02001655YS02001652 CONDUIT    476.20     0  02:14      1.09    0.23    1.00
  YS02001658YS02001655 CONDUIT    475.86     0  02:14      1.45    0.20    1.00
  YS02001661YS02001658 CONDUIT    490.79     0  02:14      1.85    0.19    1.00
  YS02001664YS02001661 CONDUIT    772.34     0  02:03      1.75    0.24    0.76
  YSB1154YSB6556       CONDUIT     43.63     0  01:53      0.17    0.08    0.72
  YSB1174YSB1171       CONDUIT     35.14     0  01:50      0.10    0.05    0.83
  YSB1171HS02004479    CONDUIT     78.00     0  01:53      0.54    0.05    0.67
  HS02004881HS02006253 CONDUIT    139.59     0  01:54      2.67    0.03    0.26
  YS02001793JiankangQianchi CONDUIT    975.27     0  01:49      4.33    0.08    1.00
  YS02001757CaochengTiaoxuchi CONDUIT   2128.09     0  02:02      3.68    0.93    1.00
  WSF200WS02003060     CONDUIT    763.96     0  02:01      2.41    0.17    0.36
  1                    CONDUIT    882.62     0  02:05      3.22    0.31    0.38
  2                    CONDUIT    131.23     0  02:50      5.23    0.31    0.39
  3                    CONDUIT    459.05     0  06:30      9.65    0.73    0.64
  4                    CONDUIT      0.00     0  00:00      0.00    0.00    0.00
  CC-Pump-1            PUMP       200.00     0  04:20              1.00
  CC-Pump-2            PUMP       200.00     0  02:40              1.00
  JK-Pump-1            PUMP       300.00     0  00:00              1.00
  JK-Pump-2            PUMP       299.97     0  04:40              1.00
  XR-Pump-1            PUMP        95.00     0  00:00              1.00
  XR-Pump-2            PUMP        94.95     0  03:00              1.00
  XR-Pump-3            PUMP        94.94     0  04:10              1.00
  XR-Pump-4            PUMP        95.00     0  06:30              1.00
  
  
  ***************************
  Flow Classification Summary
  ***************************
  
  -------------------------------------------------------------------------------------
                      Adjusted    ---------- Fraction of Time in Flow Class ---------- 
                       /Actual         Up    Down  Sub   Sup   Up    Down  Norm  Inlet 
  Conduit               Length    Dry  Dry   Dry   Crit  Crit  Crit  Crit  Ltd   Ctrl  
  -------------------------------------------------------------------------------------
  WS02003066WSF200        1.00   0.08  0.00  0.00  0.00  0.92  0.00  0.00  0.60  0.00
  WS02006287WS02006284    1.00   0.05  0.01  0.00  0.57  0.37  0.00  0.00  0.65  0.00
  WS02006284WS02006280    1.00   0.05  0.00  0.00  0.00  0.00  0.00  0.95  0.00  0.00
  WS02006280WS02006229    1.00   0.05  0.00  0.00  0.00  0.00  0.00  0.95  0.00  0.00
  WS02006229WS02006228    1.00   0.00  0.00  0.00  0.98  0.00  0.00  0.02  0.00  0.00
  WS02006256WS02006235    1.00   0.00  0.00  0.00  1.00  0.00  0.00  0.00  0.00  0.00
  WS02006253WS02006251    1.00   0.04  0.01  0.00  0.95  0.00  0.00  0.00  0.00  0.00
  WS02006252WS02006251    1.00   0.07  0.00  0.00  0.00  0.00  0.92  0.00  0.00  0.00
  WS02006251WS02006249    1.00   0.00  0.00  0.00  1.00  0.00  0.00  0.00  0.34  0.00
  WS02006249WS02006248    1.00   0.00  0.02  0.00  0.78  0.00  0.20  0.00  0.00  0.00
  WS02006248WS02006247    1.00   0.03  0.00  0.00  0.97  0.00  0.00  0.00  0.24  0.00
  WS02006247WS02006245    1.00   0.02  0.00  0.00  0.96  0.00  0.00  0.02  0.00  0.00
  WS02006245WS02006243    1.00   0.02  0.00  0.00  0.91  0.00  0.00  0.07  0.03  0.00
  WS02006243WS02006242    1.00   0.01  0.00  0.00  0.99  0.00  0.00  0.00  0.28  0.00
  WS02006242WS02006240    1.00   0.00  0.00  0.00  0.99  0.00  0.01  0.00  0.00  0.00
  WS02006240WS02006239    1.00   0.00  0.00  0.00  0.95  0.00  0.00  0.05  0.02  0.00
  WS02006239WS02006238    1.00   0.00  0.00  0.00  1.00  0.00  0.00  0.00  0.05  0.00
  WS02006238WS02006235    1.00   0.00  0.00  0.00  1.00  0.00  0.00  0.00  0.00  0.00
  WS02006235WS02006234    1.00   0.00  0.00  0.00  0.96  0.00  0.04  0.00  0.00  0.00
  WS02006234WS02006232    1.00   0.00  0.00  0.00  1.00  0.00  0.00  0.00  0.04  0.00
  WS02006232WS02006231    1.00   0.00  0.00  0.00  0.99  0.00  0.01  0.00  0.00  0.00
  WS02006231WS02006230    1.00   0.00  0.00  0.00  0.32  0.00  0.67  0.00  0.00  0.00
  WS02006230WS02006229    1.00   0.00  0.00  0.00  0.98  0.00  0.00  0.02  0.01  0.00
  WS02006228WS02006109    1.00   0.00  0.00  0.00  1.00  0.00  0.00  0.00  0.00  0.00
  WS02006116WS02004401    1.00   0.03  0.00  0.00  0.97  0.00  0.00  0.00  0.00  0.00
  WS02006115WS02006116    1.00   0.03  0.00  0.00  0.96  0.00  0.00  0.01  0.00  0.00
  WS02006113WS02006111    1.00   0.02  0.00  0.00  0.03  0.95  0.00  0.00  0.18  0.00
  WS02006112WS02006115    1.00   0.03  0.00  0.00  0.97  0.00  0.00  0.00  0.00  0.00
  WS02006111WS02006112    1.00   0.03  0.00  0.00  0.97  0.00  0.00  0.00  0.89  0.00
  WS02006110WS02006113    1.00   0.01  0.01  0.00  0.98  0.00  0.00  0.00  0.00  0.00
  WS02006109WS02006110    1.00   0.00  0.01  0.00  0.98  0.00  0.01  0.00  0.00  0.00
  WS02004411WS02004412    1.00   0.05  0.00  0.00  0.95  0.00  0.00  0.00  0.00  0.00
  WS02004401WS02004402    1.00   0.03  0.00  0.00  0.97  0.00  0.00  0.00  0.00  0.00
  WS02004413WS02003067    1.00   0.05  0.02  0.00  0.00  0.00  0.93  0.00  0.00  0.00
  WS02004412WS02004413    1.00   0.05  0.00  0.00  0.95  0.00  0.00  0.00  0.03  0.00
  WS02004410WS02004411    1.00   0.05  0.00  0.00  0.95  0.00  0.00  0.00  0.04  0.00
  WS02004409WS02004410    1.00   0.05  0.00  0.00  0.95  0.00  0.00  0.00  0.02  0.00
  WS02004407WS02004409    1.00   0.05  0.00  0.00  0.95  0.00  0.00  0.00  0.89  0.00
  WS02004406WS02004407    1.00   0.00  0.04  0.00  0.95  0.00  0.00  0.00  0.00  0.00
  WS02004405WS02004406    1.00   0.00  0.00  0.00  1.00  0.00  0.00  0.00  0.01  0.00
  WS02004404WS02004405    1.00   0.00  0.00  0.00  1.00  0.00  0.00  0.00  0.00  0.00
  WS02004403WS02004404    1.00   0.00  0.03  0.00  0.97  0.00  0.00  0.00  0.01  0.00
  WS02004402WS02004403    1.00   0.03  0.00  0.00  0.97  0.00  0.00  0.00  0.00  0.00
  WS02004139WS02001211    1.00   0.00  0.00  0.00  0.99  0.00  0.01  0.00  0.00  0.00
  WS02004138WS02004139    1.00   0.00  0.00  0.00  0.99  0.01  0.00  0.00  1.00  0.00
  WS02003067WS02003066    1.00   0.07  0.01  0.00  0.93  0.00  0.00  0.00  0.00  0.00
  WS02001213WS02003059    1.00   0.00  0.01  0.00  0.99  0.00  0.00  0.00  0.00  0.00
  WS02001212WS02001213    1.00   0.01  0.00  0.00  0.44  0.00  0.55  0.00  0.00  0.00
  WS02001211WS02001212    1.00   0.00  0.01  0.00  0.99  0.00  0.00  0.00  0.00  0.00
  WS02003072WS02003073    1.00   0.00  0.00  0.00  0.00  0.00  0.00  1.00  0.00  0.00
  WS02003069WS02003072    1.00   0.00  0.00  0.00  0.99  0.01  0.00  0.00  0.66  0.00
  WS02003060WS02003069    1.00   0.00  0.00  0.00  0.97  0.03  0.00  0.00  0.43  0.00
  WS02003059WS02003060    1.00   0.00  0.00  0.00  0.99  0.01  0.00  0.00  0.02  0.00
  HS02004901HS02004770    1.00   0.05  0.00  0.00  0.95  0.00  0.00  0.00  0.00  0.00
  HS02004876HS02004881    1.00   0.03  0.00  0.00  0.83  0.14  0.00  0.00  0.00  0.00
  HS02004870HS02004876    1.00   0.01  0.00  0.00  0.99  0.00  0.00  0.00  0.95  0.00
  HS02004842HS02004848    1.00   0.00  0.05  0.00  0.95  0.00  0.00  0.00  0.57  0.00
  HS02004837HS02004842    1.00   0.00  0.00  0.00  0.99  0.01  0.00  0.00  0.11  0.00
  HS02004830HS02004837    1.00   0.00  0.00  0.00  1.00  0.00  0.00  0.00  0.99  0.00
  HS02004824HS02004830    1.00   0.00  0.00  0.00  1.00  0.00  0.00  0.00  0.03  0.00
  HS02004817HS02004824    1.00   0.00  0.00  0.00  1.00  0.00  0.00  0.00  0.94  0.00
  HS02004770HS02004777    1.00   0.00  0.05  0.00  0.95  0.00  0.00  0.00  0.03  0.00
  HS02004799HS02004480    1.00   0.00  0.03  0.00  0.94  0.00  0.03  0.00  0.00  0.00
  HS02004792HS02004799    1.00   0.00  0.00  0.00  0.98  0.02  0.00  0.00  0.98  0.00
  HS02004788HS02004792    1.00   0.00  0.00  0.00  0.99  0.01  0.00  0.00  0.98  0.00
  HS02004785HS02004788    1.00   0.00  0.00  0.00  1.00  0.00  0.00  0.00  0.00  0.00
  HS02004777HS02004785    1.00   0.00  0.00  0.00  1.00  0.00  0.00  0.00  0.13  0.00
  HS02004480HS02004478    1.00   0.05  0.00  0.00  0.64  0.00  0.00  0.31  0.00  0.00
  HS02004479HS02004480    1.00   0.03  0.00  0.00  0.97  0.00  0.00  0.00  0.12  0.00
  HS02004862HS02004870    1.00   0.00  0.00  0.00  1.00  0.00  0.00  0.00  0.04  0.00
  HS02004848HS02004852    1.00   0.05  0.00  0.00  0.95  0.00  0.00  0.00  0.78  0.00
  HS02004856HS02004862    1.00   0.00  0.06  0.00  0.94  0.00  0.00  0.00  0.82  0.00
  HS02004852HS02004856    1.00   0.05  0.00  0.00  0.95  0.00  0.00  0.00  0.77  0.00
  HS02004802HS02004478    1.00   0.05  0.00  0.00  0.95  0.00  0.00  0.00  0.03  0.00
  HS02004478WS02006287    1.00   0.06  0.00  0.00  0.66  0.28  0.00  0.00  0.62  0.00
  HS02004817HS02004807    1.00   0.00  0.05  0.00  0.95  0.00  0.00  0.00  0.01  0.00
  HS02004807HS02004802    1.00   0.05  0.00  0.00  0.94  0.00  0.00  0.00  0.00  0.00
  YS02001759YS02001757    1.00   0.00  0.00  0.00  1.00  0.00  0.00  0.00  0.16  0.00
  YS02001762YS02001759    1.00   0.00  0.00  0.00  1.00  0.00  0.00  0.00  0.03  0.00
  YS02001765YS02001762    1.00   0.00  0.00  0.00  1.00  0.00  0.00  0.00  0.14  0.00
  YS02001770YS02001767    1.00   0.00  0.00  0.00  1.00  0.00  0.00  0.00  0.00  0.00
  YS02001774YS02001770    1.00   0.00  0.05  0.00  0.95  0.00  0.00  0.00  0.03  0.00
  YS02001779YS02001774    1.00   0.00  0.00  0.00  1.00  0.00  0.00  0.00  0.18  0.00
  YS02001649YS02001757    1.00   0.00  0.00  0.00  1.00  0.00  0.00  0.00  0.16  0.00
  YS02001767YS02001765    1.00   0.00  0.00  0.00  1.00  0.00  0.00  0.00  0.00  0.00
  YS02006561YS02001783    1.00   0.06  0.00  0.00  0.76  0.17  0.00  0.00  0.51  0.00
  YS02001783YS02001784    1.00   0.00  0.06  0.00  0.94  0.00  0.00  0.00  0.00  0.00
  YS02001784YS02001785    1.00   0.00  0.00  0.00  1.00  0.00  0.00  0.00  0.18  0.00
  YS02001788YS02001790    1.00   0.00  0.00  0.00  0.86  0.14  0.00  0.00  0.30  0.00
  YS02001790YS02001791    1.00   0.00  0.00  0.00  0.83  0.17  0.00  0.00  0.09  0.00
  YS02001791YS02001793    1.00   0.00  0.00  0.00  0.86  0.14  0.00  0.00  0.03  0.00
  YS02001910YS02001907    1.00   0.00  0.00  0.00  0.97  0.00  0.00  0.03  0.12  0.00
  YS02001786YS02001788    1.00   0.00  0.00  0.00  0.83  0.17  0.00  0.00  0.00  0.00
  YS02001915YS02001910    1.00   0.00  0.00  0.00  0.98  0.02  0.00  0.00  0.16  0.00
  YS02001918YS02001915    1.00   0.00  0.01  0.00  0.98  0.02  0.00  0.00  0.52  0.00
  YS02001923YS02001920    1.00   0.00  0.00  0.00  1.00  0.00  0.00  0.00  0.74  0.00
  YS02001926YS02001923    1.00   0.00  0.04  0.00  0.28  0.00  0.68  0.00  0.00  0.00
  YS02001929YS02001926    1.00   0.00  0.05  0.00  0.95  0.00  0.00  0.00  0.66  0.00
  YS02001920YS02001918    1.00   0.00  0.01  0.00  0.99  0.00  0.00  0.00  0.00  0.00
  YS02001629YS02163301    1.00   0.06  0.00  0.00  0.94  0.00  0.00  0.00  0.00  0.00
  YS02001619YS02001622    1.00   0.05  0.00  0.00  0.95  0.00  0.00  0.00  0.00  0.00
  YS02001622YS02001625    1.00   0.05  0.00  0.00  0.95  0.00  0.00  0.00  0.05  0.00
  YS02001625YS02001629    1.00   0.05  0.01  0.00  0.92  0.00  0.01  0.00  0.00  0.00
  YS02163301YS02001633    1.00   0.00  0.06  0.00  0.94  0.00  0.00  0.00  0.00  0.00
  YS02163601YS02164001    1.00   0.00  0.04  0.00  0.96  0.00  0.00  0.00  0.00  0.00
  YS02164001YS02001641    1.00   0.01  0.03  0.00  0.96  0.00  0.00  0.00  0.06  0.00
  YS02001641YS02001644    1.00   0.00  0.01  0.00  0.99  0.00  0.00  0.00  0.00  0.00
  YS02001647YS02001649    1.00   0.00  0.06  0.00  0.94  0.00  0.00  0.00  0.01  0.00
  YS02006553YS02006556    1.00   0.02  0.00  0.00  0.98  0.00  0.00  0.00  0.03  0.00
  YS02006556YS02006558    1.00   0.00  0.00  0.00  1.00  0.00  0.00  0.00  0.00  0.00
  YSB6556YSB1171          1.00   0.03  0.02  0.00  0.95  0.00  0.00  0.00  0.00  0.00
  YS02001907YS02006553    1.00   0.00  0.03  0.00  0.97  0.00  0.00  0.00  0.00  0.00
  YS02006558YS02006561    1.00   0.06  0.00  0.00  0.31  0.62  0.00  0.00  0.42  0.00
  YS02001633YS02163601    1.00   0.00  0.01  0.00  0.99  0.00  0.00  0.00  0.15  0.00
  YS02001644YS02001647    1.00   0.00  0.06  0.00  0.94  0.00  0.00  0.00  0.00  0.00
  YS02001745YS02001748    1.00   0.00  0.00  0.00  0.91  0.00  0.00  0.09  0.01  0.00
  YS02001748YS02001751    1.00   0.00  0.00  0.00  0.98  0.02  0.00  0.00  0.14  0.00
  YS02001751YS02001754    1.00   0.00  0.00  0.00  0.93  0.00  0.00  0.07  0.01  0.00
  YS02001754YS02001757    1.00   0.00  0.00  0.00  0.99  0.01  0.00  0.00  0.18  0.00
  YS02001882YS02001884    1.00   0.06  0.00  0.00  0.94  0.00  0.00  0.00  0.00  0.00
  YS02001884YS02001887    1.00   0.04  0.01  0.00  0.95  0.00  0.00  0.00  0.00  0.00
  YS02001890YS02001895    1.00   0.00  0.06  0.00  0.94  0.00  0.00  0.00  0.00  0.00
  YS02001895YS02001898    1.00   0.06  0.00  0.00  0.93  0.00  0.01  0.00  0.00  0.00
  YS02001898YS02001901    1.00   0.06  0.00  0.00  0.94  0.00  0.00  0.00  0.01  0.00
  YS02001901YS02001904    1.00   0.06  0.00  0.00  0.94  0.00  0.00  0.00  0.00  0.00
  YS02001904YS02001907    1.00   0.00  0.06  0.00  0.94  0.00  0.00  0.00  0.00  0.00
  YS02001887YS02001890    1.00   0.00  0.00  0.00  0.97  0.00  0.03  0.00  0.00  0.00
  YS02001652YS02001649    1.00   0.00  0.00  0.00  1.00  0.00  0.00  0.00  0.16  0.00
  YS02001655YS02001652    1.00   0.00  0.00  0.00  0.93  0.00  0.00  0.07  0.01  0.00
  YS02001658YS02001655    1.00   0.00  0.06  0.00  0.92  0.02  0.00  0.00  0.02  0.00
  YS02001661YS02001658    1.00   0.06  0.00  0.00  0.90  0.04  0.00  0.00  0.00  0.00
  YS02001664YS02001661    1.00   0.05  0.00  0.00  0.92  0.03  0.00  0.00  0.11  0.00
  YSB1154YSB6556          1.00   0.05  0.00  0.00  0.95  0.00  0.00  0.00  0.02  0.00
  YSB1174YSB1171          1.00   0.04  0.01  0.00  0.96  0.00  0.00  0.00  0.00  0.00
  YSB1171HS02004479       1.00   0.03  0.00  0.00  0.96  0.00  0.00  0.00  0.11  0.00
  HS02004881HS02006253    1.00   0.04  0.00  0.00  0.52  0.10  0.00  0.34  0.43  0.00
  YS02001793JiankangQianchi    1.00   0.00  0.00  0.00  0.95  0.05  0.00  0.00  0.10  0.00
  YS02001757CaochengTiaoxuchi    1.00   0.00  0.07  0.00  0.89  0.03  0.00  0.00  0.00  0.00
  WSF200WS02003060        1.00   0.00  0.08  0.00  0.24  0.69  0.00  0.00  0.26  0.00
  1                       1.00   0.00  0.00  0.00  0.00  1.00  0.00  0.00  0.32  0.00
  2                       1.00   0.79  0.00  0.00  0.00  0.21  0.00  0.00  0.05  0.00
  3                       1.00   0.63  0.00  0.00  0.00  0.37  0.00  0.00  0.24  0.00
  4                       1.00   1.00  0.00  0.00  0.00  0.00  0.00  0.00  0.00  0.00
  
  
  *************************
  Conduit Surcharge Summary
  *************************
  
  ----------------------------------------------------------------------------
                                                           Hours        Hours 
                         --------- Hours Full --------   Above Full   Capacity
  Conduit                Both Ends  Upstream  Dnstream   Normal Flow   Limited
  ----------------------------------------------------------------------------
  WS02006229WS02006228        1.46      1.47      1.46      2.22         1.46
  WS02006256WS02006235        5.22      5.22      7.13      1.66         0.01
  WS02006252WS02006251        0.23      0.23      0.64      0.53         0.01
  WS02006251WS02006249        0.01      0.01      0.01      0.29         0.01
  WS02006249WS02006248        0.01      0.01      0.01      2.41         0.01
  WS02006247WS02006245        0.01      0.01      0.01      3.34         0.01
  WS02006245WS02006243        0.01      0.01      0.01      0.02         0.01
  WS02006243WS02006242        0.01      0.01      0.83      0.01         0.01
  WS02006242WS02006240        0.57      0.57      1.01      0.98         0.01
  WS02006240WS02006239        0.66      0.66      0.76      0.09         0.01
  WS02006239WS02006238        1.02      1.02      1.10      0.13         0.01
  WS02006238WS02006235        1.06      1.06      1.23      0.01         0.01
  WS02006235WS02006234        0.78      0.78      0.99      4.90         0.04
  WS02006234WS02006232        0.96      0.96      1.34      0.01         0.01
  WS02006232WS02006231        0.69      0.69      1.34      0.01         0.01
  WS02006231WS02006230        0.65      0.65      0.71      5.40         0.03
  WS02006230WS02006229        1.61      2.08      1.61      5.87         1.57
  WS02006228WS02006109        1.47      1.49      1.47      3.03         1.47
  WS02006116WS02004401        0.46      0.46      0.47      0.33         0.33
  WS02006115WS02006116        0.15      0.15      0.17      0.01         0.01
  WS02006112WS02006115        0.06      0.06      1.37      0.01         0.01
  WS02006111WS02006112        0.01      0.01      2.24      0.01         0.01
  WS02006110WS02006113        0.01      0.01      1.48      0.01         0.01
  WS02006109WS02006110        1.32      1.32      1.49      1.32         0.01
  WS02004411WS02004412        0.01      0.01      0.01      0.43         0.01
  WS02004401WS02004402        0.47      0.47      0.51      0.01         0.01
  WS02004410WS02004411        0.01      0.01      0.01      0.29         0.01
  WS02004406WS02004407        0.01      0.01      0.63      0.01         0.01
  WS02004405WS02004406        0.63      0.66      0.63      1.34         0.63
  WS02004404WS02004405        0.66      0.71      0.66      5.77         0.66
  WS02004403WS02004404        0.51      0.51      0.71      0.01         0.01
  WS02004402WS02004403        0.51      0.51      0.51      0.45         0.45
  WS02003072WS02003073        0.01      0.01      0.01      1.47         0.01
  HS02004876HS02004881        0.01      0.01      0.01      0.49         0.01
  HS02004785HS02004788        0.01      0.01      0.01      0.35         0.01
  HS02004480HS02004478        0.01      0.01      0.01      0.79         0.01
  YS02001759YS02001757        6.09      6.09      6.12      0.01         0.01
  YS02001762YS02001759        6.08      6.08      6.09      0.01         0.01
  YS02001765YS02001762        6.08      6.08      6.08      0.01         0.01
  YS02001770YS02001767        6.07      6.07      6.07      0.40         0.60
  YS02001774YS02001770        6.07      6.07      6.08      0.01         0.01
  YS02001779YS02001774        6.04      6.04      6.08      0.01         0.01
  YS02001649YS02001757        6.08      6.08      6.12      0.01         0.01
  YS02001767YS02001765        6.07      6.07      6.08      0.01         0.01
  YS02006561YS02001783        1.67      1.67      2.15      0.01         0.01
  YS02001783YS02001784        2.15      2.15      2.23      2.02         1.97
  YS02001784YS02001785        2.15      2.23      2.15      2.74         2.15
  YS02001788YS02001790        2.14      2.14      5.07      0.01         0.01
  YS02001790YS02001791        5.07      5.07      5.16      1.53         1.52
  YS02001791YS02001793        5.16      5.16      5.61      0.01         0.01
  YS02001910YS02001907        1.95      1.95      2.28      0.01         0.01
  YS02001786YS02001788        2.14      2.15      2.14      2.39         2.14
  YS02001915YS02001910        1.78      1.78      1.95      0.01         0.01
  YS02001918YS02001915        1.57      1.57      1.78      0.01         0.01
  YS02001923YS02001920        1.37      1.37      1.60      0.01         0.01
  YS02001926YS02001923        0.01      0.01      0.01      0.01         0.01
  YS02001929YS02001926        0.01      0.01      0.01      0.01         0.01
  YS02001920YS02001918        1.57      1.57      1.60      0.01         0.01
  YS02001629YS02163301        6.06      6.06      6.07      0.01         0.01
  YS02001619YS02001622        6.02      6.02      6.02      0.01         0.01
  YS02001622YS02001625        6.02      6.02      6.05      0.01         0.01
  YS02001625YS02001629        6.02      6.02      6.05      0.01         0.01
  YS02163301YS02001633        6.07      6.07      6.08      0.01         0.01
  YS02163601YS02164001        6.08      6.08      6.09      0.01         0.01
  YS02164001YS02001641        6.08      6.08      6.08      0.01         0.01
  YS02001641YS02001644        6.08      6.08      6.08      2.21         2.32
  YS02001647YS02001649        6.05      6.05      6.08      0.01         0.01
  YS02006553YS02006556        2.12      2.12      2.34      0.01         0.01
  YS02006556YS02006558        2.18      2.18      2.40      0.01         0.01
  YSB6556YSB1171              0.01      0.01      0.14      0.01         0.01
  YS02001907YS02006553        2.76      2.76      2.95      0.01         0.01
  YS02006558YS02006561        1.86      2.09      1.86      2.63         1.86
  YS02001633YS02163601        6.08      6.08      6.09      0.01         0.01
  YS02001644YS02001647        6.05      6.05      6.08      0.01         0.01
  YS02001745YS02001748        0.01      0.01      5.99      0.01         0.01
  YS02001748YS02001751        6.00      6.00      6.02      0.01         0.01
  YS02001751YS02001754        6.02      6.02      6.05      0.01         0.01
  YS02001754YS02001757        6.05      6.05      6.12      0.01         0.01
  YS02001882YS02001884        1.78      1.78      1.81      0.01         0.01
  YS02001884YS02001887        1.86      1.86      1.88      0.01         0.01
  YS02001890YS02001895        1.76      1.76      1.97      0.01         0.01
  YS02001895YS02001898        1.75      1.75      1.76      0.01         0.01
  YS02001898YS02001901        1.77      1.77      1.86      0.01         0.01
  YS02001901YS02001904        1.83      1.83      1.86      0.01         0.01
  YS02001904YS02001907        1.83      1.83      2.37      0.01         0.01
  YS02001887YS02001890        1.91      1.91      1.93      0.20         0.01
  YS02001652YS02001649        6.06      6.06      6.08      0.01         0.01
  YS02001655YS02001652        6.02      6.02      6.05      0.01         0.01
  YS02001658YS02001655        5.99      5.99      6.02      0.01         0.01
  YS02001661YS02001658        0.16      0.16      5.99      0.01         0.01
  YS02001664YS02001661        0.01      0.01      1.47      0.01         0.01
  YS02001793JiankangQianchi        5.49      5.49      6.26      0.01         0.01
  YS02001757CaochengTiaoxuchi        5.64      5.64      6.12      0.01         0.01
  
  
  ***************
  Pumping Summary
  ***************
  
  ---------------------------------------------------------------------------------------------------------
                                                  Min       Avg       Max     Total     Power    % Time Off
                        Percent   Number of      Flow      Flow      Flow    Volume     Usage    Pump Curve
  Pump                 Utilized   Start-Ups       LPS       LPS       LPS  10^6 ltr     Kw-hr    Low   High
  ---------------------------------------------------------------------------------------------------------
  CC-Pump-1               25.54           5      0.00    120.38    200.00     0.840      0.70    0.0    0.0
  CC-Pump-2               51.62           8      0.00    131.36    200.00     1.809      1.51    0.0    5.2
  JK-Pump-1               31.92           4      0.00    183.58    300.00     1.261      7.44    0.0    0.0
  JK-Pump-2               21.25           5      0.00    145.36    299.97     0.545      3.01    0.0    0.0
  XR-Pump-1               82.96           7      0.00     61.20     95.00     1.397      7.00    0.0    0.0
  XR-Pump-2                4.26           1      0.00     53.14     94.95     0.057      0.25    0.0    0.0
  XR-Pump-3                4.26           1      0.00     42.20     94.94     0.057      0.25    0.0    0.0
  XR-Pump-4               27.64           5      0.00     55.15     95.00     0.399      1.77    0.0    0.0
  

  Analysis begun on:  Thu Jan  6 19:52:15 2022
  Analysis ended on:  Thu Jan  6 19:52:17 2022
  Total elapsed time: 00:00:02