
  EPA STORM WATER MANAGEMENT MODEL - VERSION 5.1 (Build 5.3.0.dev0)
  --------------------------------------------------------------

  WARNING 04: minimum elevation drop used for Conduit WS02004404WS02004405
  WARNING 03: negative offset ignored for Link YS02001904YS02001907
  
  *********************************************************
  NOTE: The summary statistics displayed in this report are
  based on results found at every computational time step,  
  not just on results from each reporting time step.
  *********************************************************
  
  ****************
  Analysis Options
  ****************
  Flow Units ............... LPS
  Process Models:
    Rainfall/Runoff ........ YES
    RDII ................... NO
    Snowmelt ............... NO
    Groundwater ............ NO
    Flow Routing ........... YES
    Ponding Allowed ........ NO
    Water Quality .......... NO
  Infiltration Method ...... HORTON
  Flow Routing Method ...... DYNWAVE
  Surcharge Method ......... EXTRAN
  Starting Date ............ 08/28/2015 08:00:00
  Ending Date .............. 08/28/2015 15:50:00
  Antecedent Dry Days ...... 8.0
  Report Time Step ......... 00:01:00
  Wet Time Step ............ 00:01:00
  Dry Time Step ............ 00:01:00
  Routing Time Step ........ 5.00 sec
  Variable Time Step ....... YES
  Maximum Trials ........... 8
  Number of Threads ........ 4
  Head Tolerance ........... 0.001500 m
  
  
  **************************        Volume         Depth
  Runoff Quantity Continuity     hectare-m            mm
  **************************     ---------       -------
  Total Precipitation ......         7.641        16.729
  Evaporation Loss .........         0.000         0.000
  Infiltration Loss ........         1.880         4.117
  Surface Runoff ...........         4.668        10.221
  Final Storage ............         1.093         2.393
  Continuity Error (%) .....        -0.013
  
  
  **************************        Volume        Volume
  Flow Routing Continuity        hectare-m      10^6 ltr
  **************************     ---------     ---------
  Dry Weather Inflow .......         0.616         6.165
  Wet Weather Inflow .......         4.667        46.672
  Groundwater Inflow .......         0.000         0.000
  RDII Inflow ..............         0.000         0.000
  External Inflow ..........         0.102         1.024
  External Outflow .........         0.990         9.904
  Flooding Loss ............         3.802        38.022
  Evaporation Loss .........         0.000         0.000
  Exfiltration Loss ........         0.000         0.000
  Initial Stored Volume ....         0.076         0.761
  Final Stored Volume ......         0.673         6.731
  Continuity Error (%) .....        -0.067
  
  
  *************************
  Highest Continuity Errors
  *************************
  Node HS02004842 (12.71%)
  Node YS02001884 (9.96%)
  Node HS02004817 (2.32%)
  Node YSB1171 (2.18%)
  Node YS02163301 (1.65%)
  
  
  ***************************
  Time-Step Critical Elements
  ***************************
  Link WS02006252WS02006251 (54.91%)
  Link 3 (30.52%)
  Link WS02006280WS02006229 (3.89%)
  Link YS02006556YS02006558 (3.06%)
  Link WS02006238WS02006235 (1.81%)
  
  
  ********************************
  Highest Flow Instability Indexes
  ********************************
  Link WS02006113WS02006111 (40)
  Link YS02163601YS02164001 (28)
  Link YS02163301YS02001633 (28)
  Link YS02001629YS02163301 (27)
  Link YS02001619YS02001622 (27)
  
  
  *************************
  Routing Time Step Summary
  *************************
  Minimum Time Step           :     0.22 sec
  Average Time Step           :     1.07 sec
  Maximum Time Step           :     5.00 sec
  Percent in Steady State     :    -0.00
  Average Iterations per Step :     3.58
  Percent Not Converging      :    12.67
  
  
  ***************************
  Subcatchment Runoff Summary
  ***************************
  
  ------------------------------------------------------------------------------------------------------------------------------
                            Total      Total      Total      Total     Imperv       Perv      Total       Total     Peak  Runoff
                           Precip      Runon       Evap      Infil     Runoff     Runoff     Runoff      Runoff   Runoff   Coeff
  Subcatchment                 mm         mm         mm         mm         mm         mm         mm    10^6 ltr      LPS
  ------------------------------------------------------------------------------------------------------------------------------
  sub0                      16.73       0.00       0.00       0.97      14.29       0.20      14.50        0.01     3.66   0.867
  sub1                      16.73       0.00       0.00       1.58      13.63       0.26      13.89        0.09    24.51   0.830
  sub2                      16.73       0.00       0.00       5.80       9.63       0.39      10.02        0.09    22.91   0.599
  sub3                      16.73       0.00       0.00       5.88       9.59       0.31       9.90        0.22    50.49   0.592
  sub4                      16.73       0.00       0.00       1.65      13.47       0.19      13.66        0.28    60.01   0.817
  sub5                      16.73       0.00       0.00       0.99      14.24       0.18      14.42        0.16    43.61   0.862
  sub7                      16.73       0.00       0.00       1.26      13.97       0.24      14.21        0.05    13.82   0.849
  sub8                      16.73       0.00       0.00       1.27      13.96       0.23      14.19        0.09    25.44   0.848
  sub9                      16.73       0.00       0.00       1.27      13.96       0.23      14.19        0.07    19.02   0.848
  sub10                     16.73       0.00       0.00       1.13      14.10       0.21      14.30        0.16    42.73   0.855
  sub11                     16.73       0.00       0.00       1.12      14.11       0.21      14.33        0.17    47.25   0.857
  sub12                     16.73       0.00       0.00       1.83      13.37       0.35      13.71        0.12    35.87   0.820
  sub14                     16.73       0.00       0.00       1.27      13.95       0.23      14.19        0.14    37.43   0.848
  sub15                     16.73       0.00       0.00       4.53      10.73       0.49      11.22        0.19    51.47   0.671
  sub16                     16.73       0.00       0.00       4.88      10.29       0.64      10.93        0.11    32.57   0.653
  sub17                     16.73       0.00       0.00       4.74      10.44       0.61      11.05        0.09    26.81   0.661
  sub22                     16.73       0.00       0.00       6.60       8.75       0.59       9.34        0.59   160.16   0.558
  sub23                     16.73       0.00       0.00       5.59       9.67       0.60      10.27        0.49   134.74   0.614
  sub60                     16.73       0.00       0.00       1.94      11.65       0.06      11.71        3.55   386.89   0.700
  sub61                     16.73       0.00       0.00       2.75      11.65       0.09      11.73        3.62   476.87   0.701
  sub62                     16.73       0.00       0.00       1.26      12.72       0.07      12.79        3.93   491.27   0.765
  sub63                     16.73       0.00       0.00       4.75      10.14       0.10      10.23        3.10   437.54   0.612
  sub64                     16.73       0.00       0.00       2.45      11.19       0.06      11.26        3.42   367.58   0.673
  sub65                     16.73       0.00       0.00       2.11      11.40       0.06      11.46        3.52   372.98   0.685
  sub66                     16.73       0.00       0.00       4.79       9.55       0.06       9.61        2.95   336.52   0.575
  sub67                     16.73       0.00       0.00       1.24      13.25       0.09      13.35        4.12   605.48   0.798
  sub68                     16.73       0.00       0.00       2.25      12.20       0.10      12.30        3.78   521.64   0.735
  sub69                     16.73       0.00       0.00       2.37      12.50       0.14      12.64        2.95   482.20   0.755
  sub70                     16.73      12.90       0.00       8.98      17.16       1.09      18.25        4.18   460.88   0.616
  sub71                     16.73       0.00       0.00       1.27      12.46       0.07      12.53        2.96   345.19   0.749
  sub72                     16.73       0.00       0.00       1.14      10.39       0.03      10.43        2.12   185.81   0.623
  sub73                     16.73      17.77       0.00       9.78      19.72       1.38      21.10        4.96   482.28   0.612
  sub74                     16.73       0.00       0.00      12.48       3.71       0.07       3.78        1.51   261.10   0.226
  
  
  ******************
  Node Depth Summary
  ******************
  
  ---------------------------------------------------------------------------------
                                 Average  Maximum  Maximum  Time of Max    Reported
                                   Depth    Depth      HGL   Occurrence   Max Depth
  Node                 Type       Meters   Meters   Meters  days hr:min      Meters
  ---------------------------------------------------------------------------------
  WS02001211           JUNCTION     0.46     0.65     5.49     0  04:11        0.65
  WS02001212           JUNCTION     0.22     0.37     5.43     0  04:12        0.37
  WS02001213           JUNCTION     0.46     0.66     5.42     0  02:11        0.66
  WS02003069           JUNCTION     0.31     0.55     5.13     0  02:13        0.55
  WS02003072           JUNCTION     0.38     0.61     4.98     0  02:13        0.61
  WS02003073           JUNCTION     0.22     0.37     4.44     0  02:14        0.37
  WS02003060           JUNCTION     0.28     0.48     5.41     0  02:12        0.48
  WS02003066           JUNCTION     0.21     0.35     5.91     0  01:57        0.35
  WS02003059           JUNCTION     0.53     0.73     5.42     0  02:12        0.73
  WS02003067           JUNCTION     0.51     0.78     6.10     0  01:57        0.78
  WS02004401           JUNCTION     0.62     1.10     7.10     0  01:53        1.10
  WS02004402           JUNCTION     0.65     1.11     7.07     0  01:54        1.10
  WS02004403           JUNCTION     0.67     1.09     7.02     0  01:54        1.09
  WS02004404           JUNCTION     0.75     1.15     7.00     0  01:55        1.15
  WS02004406           JUNCTION     0.75     1.10     6.93     0  01:55        1.10
  WS02004409           JUNCTION     0.43     0.85     6.62     0  01:57        0.85
  WS02004410           JUNCTION     0.45     0.85     6.57     0  01:57        0.84
  WS02004411           JUNCTION     0.46     0.84     6.52     0  01:57        0.84
  WS02004412           JUNCTION     0.48     0.83     6.47     0  01:57        0.83
  WS02004413           JUNCTION     0.64     0.97     6.44     0  01:57        0.97
  WS02004405           JUNCTION     0.74     1.13     6.98     0  01:56        1.13
  WS02006109           JUNCTION     0.70     1.24     7.86     0  01:54        1.23
  WS02006110           JUNCTION     0.69     1.10     7.68     0  01:53        1.10
  WS02006111           JUNCTION     0.21     0.59     7.29     0  01:54        0.59
  WS02006112           JUNCTION     0.79     1.37     7.26     0  01:54        1.37
  WS02006113           JUNCTION     0.30     0.60     7.49     0  01:54        0.60
  WS02006115           JUNCTION     0.51     1.05     7.19     0  01:54        1.05
  WS02006116           JUNCTION     0.59     1.11     7.15     0  01:54        1.11
  WS02006230           JUNCTION     0.65     1.35     8.09     0  01:52        1.34
  WS02006231           JUNCTION     0.42     0.98     8.10     0  01:52        0.97
  WS02006232           JUNCTION     0.54     1.08     8.12     0  01:52        1.06
  WS02006234           JUNCTION     0.44     0.96     8.12     0  01:52        0.94
  WS02006235           JUNCTION     0.47     0.97     8.13     0  01:52        0.94
  WS02006238           JUNCTION     0.49     0.99     8.13     0  01:52        0.97
  WS02006240           JUNCTION     0.39     0.86     8.15     0  01:52        0.84
  WS02006242           JUNCTION     0.44     0.89     8.16     0  01:52        0.88
  WS02006243           JUNCTION     0.32     0.75     8.17     0  01:52        0.74
  WS02006245           JUNCTION     0.31     0.70     8.19     0  01:51        0.70
  WS02006247           JUNCTION     0.34     0.70     8.20     0  01:51        0.69
  WS02006248           JUNCTION     0.29     0.62     8.21     0  01:51        0.62
  WS02006249           JUNCTION     0.32     0.62     8.21     0  01:51        0.62
  WS02006239           JUNCTION     0.44     0.93     8.14     0  01:52        0.91
  WS02006251           JUNCTION     0.30     0.60     8.27     0  01:50        0.60
  WS02006252           JUNCTION     0.24     0.59     8.83     0  07:20        0.59
  WS02006253           JUNCTION     0.33     0.64     8.28     0  01:51        0.63
  WS02006256           JUNCTION     0.85     1.20     8.13     0  04:50        1.20
  WS02004138           JUNCTION     0.06     0.17     7.41     0  04:10        0.17
  WS02004407           JUNCTION     0.19     0.36     6.68     0  01:55        0.36
  WS02006228           JUNCTION     0.70     1.36     8.01     0  01:55        1.35
  WS02006229           JUNCTION     0.67     1.39     8.08     0  01:54        1.39
  WS02006280           JUNCTION     0.08     0.25     8.52     0  01:55        0.25
  WS02006284           JUNCTION     0.38     0.64     9.04     0  01:55        0.64
  WS02006287           JUNCTION     0.12     0.38     9.33     0  01:54        0.38
  WSF200               JUNCTION     0.18     0.36     5.60     0  02:00        0.36
  HS02004901           JUNCTION     0.14     0.36    10.18     0  01:52        0.36
  HS02004881           JUNCTION     0.01     0.05     9.08     0  01:55        0.05
  HS02004876           JUNCTION     0.05     0.16     9.19     0  01:55        0.16
  HS02004870           JUNCTION     0.02     0.09     9.38     0  01:55        0.09
  HS02004862           JUNCTION     0.03     0.11     9.49     0  01:55        0.11
  HS02004856           JUNCTION     0.08     0.15     9.58     0  01:55        0.15
  HS02004852           JUNCTION     0.02     0.07     9.59     0  01:55        0.07
  HS02004848           JUNCTION     0.01     0.07     9.67     0  01:55        0.07
  HS02004842           JUNCTION     0.33     0.40     9.67     0  01:55        0.40
  HS02004837           JUNCTION     0.03     0.09     9.67     0  01:55        0.09
  HS02004830           JUNCTION     0.05     0.10     9.57     0  01:56        0.10
  HS02004824           JUNCTION     0.03     0.12     9.53     0  01:55        0.12
  HS02004817           JUNCTION     0.45     0.69     9.53     0  01:55        0.69
  HS02004807           JUNCTION     0.14     0.36     9.53     0  01:55        0.36
  HS02004802           JUNCTION     0.18     0.39     9.52     0  01:55        0.39
  HS02004799           JUNCTION     0.14     0.45     9.66     0  01:53        0.45
  HS02004792           JUNCTION     0.05     0.20     9.73     0  01:52        0.20
  HS02004788           JUNCTION     0.03     0.15    10.05     0  01:53        0.15
  HS02004785           JUNCTION     0.06     0.23    10.14     0  01:52        0.23
  HS02004777           JUNCTION     0.16     0.37    10.17     0  01:52        0.37
  HS02004770           JUNCTION     0.13     0.35    10.18     0  01:52        0.35
  HS02004480           JUNCTION     0.10     0.37     9.61     0  01:53        0.37
  HS02004479           JUNCTION     0.14     0.41     9.61     0  01:53        0.41
  HS02004478           JUNCTION     0.08     0.27     9.50     0  01:54        0.27
  YS02001745           JUNCTION     0.76     0.95     8.47     0  03:00        0.95
  YS02001748           JUNCTION     1.16     1.38     8.46     0  03:00        1.38
  YS02001751           JUNCTION     1.34     1.73     8.61     0  01:48        1.58
  YS02001754           JUNCTION     1.59     1.85     8.46     0  02:54        1.84
  YS02001762           JUNCTION     1.78     2.05     8.45     0  02:54        2.04
  YS02001765           JUNCTION     1.73     2.00     8.45     0  02:54        1.99
  YS02001767           JUNCTION     1.70     1.95     8.44     0  02:54        1.94
  YS02001770           JUNCTION     1.69     1.93     8.43     0  02:54        1.93
  YS02001774           JUNCTION     1.76     1.99     8.41     0  02:37        1.98
  YS02001779           JUNCTION     1.51     1.68     8.37     0  01:47        1.68
  YS02001882           JUNCTION     0.67     1.83     8.55     0  01:54        1.62
  YS02001884           JUNCTION     0.76     1.90     8.52     0  01:54        1.73
  YS02001759           JUNCTION     1.81     2.09     8.45     0  02:54        2.08
  YS02001887           JUNCTION     0.84     1.90     8.44     0  01:54        1.80
  YS02001890           JUNCTION     0.87     1.81     8.32     0  01:54        1.81
  YS02001898           JUNCTION     0.64     1.61     8.34     0  01:54        1.56
  YS02001901           JUNCTION     0.75     1.70     8.31     0  01:54        1.67
  YS02001904           JUNCTION     0.73     1.65     8.28     0  01:56        1.63
  YS02001907           JUNCTION     1.05     1.96     8.25     0  01:56        1.96
  YS02001910           JUNCTION     0.85     1.89     8.39     0  01:57        1.78
  YS02001915           JUNCTION     0.65     1.84     8.56     0  01:54        1.63
  YS02001918           JUNCTION     0.41     1.60     8.67     0  01:56        1.32
  YS02001619           JUNCTION     1.30     1.61     8.54     0  01:47        1.61
  YS02001629           JUNCTION     1.64     1.85     8.40     0  01:47        1.85
  YS02001641           JUNCTION     1.74     1.94     8.38     0  01:54        1.93
  YS02001644           JUNCTION     1.74     1.92     8.35     0  01:51        1.92
  YS02001652           JUNCTION     1.60     2.07     8.66     0  02:17        1.93
  YS02001655           JUNCTION     1.36     1.99     8.84     0  02:17        1.81
  YS02001920           JUNCTION     0.50     1.69     8.70     0  01:57        1.41
  YS02001923           JUNCTION     0.33     1.58     8.84     0  01:57        1.18
  YS02001926           JUNCTION     0.36     1.90     9.34     0  01:57        1.02
  YS02001929           JUNCTION     0.22     0.91     8.60     0  01:57        0.78
  YS02001658           JUNCTION     1.10     1.98     9.12     0  02:17        1.65
  YS02001661           JUNCTION     0.87     2.00     9.40     0  02:17        1.50
  YS02001664           JUNCTION     0.39     0.56     8.49     0  04:40        0.56
  YS02001622           JUNCTION     1.32     1.62     8.52     0  01:47        1.62
  YS02001633           JUNCTION     1.73     1.95     8.40     0  02:07        1.94
  YS02001649           JUNCTION     1.79     2.05     8.44     0  02:05        2.04
  YS02001757           JUNCTION     1.91     2.19     8.45     0  02:54        2.18
  YS02001895           JUNCTION     0.63     1.59     8.34     0  01:54        1.56
  YS02001625           JUNCTION     1.59     1.78     8.38     0  01:46        1.78
  YS02163301           JUNCTION     1.67     1.92     8.44     0  01:47        1.88
  YS02163601           JUNCTION     1.78     1.99     8.39     0  01:51        1.98
  YS02164001           JUNCTION     1.72     1.92     8.38     0  01:54        1.91
  YS02001647           JUNCTION     1.58     1.81     8.42     0  02:05        1.78
  YSB1154              JUNCTION     0.27     0.56     9.62     0  01:53        0.56
  YSB6556              JUNCTION     0.17     0.44     9.61     0  01:53        0.44
  YSB1174              JUNCTION     0.23     0.50     9.61     0  01:53        0.50
  YSB1171              JUNCTION     0.42     0.71     9.61     0  01:53        0.71
  YS02006553           JUNCTION     1.05     1.97     8.26     0  01:56        1.96
  YS02006561           JUNCTION     0.41     1.39     8.05     0  01:54        1.09
  YS02006556           JUNCTION     1.02     1.95     8.26     0  01:56        1.93
  YS02006558           JUNCTION     1.06     1.99     8.26     0  01:56        1.97
  YS02001783           JUNCTION     0.68     1.67     7.81     0  01:54        1.47
  YS02001784           JUNCTION     0.70     1.88     7.95     0  01:53        1.41
  YS02001786           JUNCTION     0.66     2.23     8.26     0  01:53        1.43
  YS02001788           JUNCTION     0.62     2.28     8.26     0  01:53        1.47
  YS02001790           JUNCTION     0.83     1.96     7.60     0  01:53        1.71
  YS02001791           JUNCTION     0.90     2.72     8.19     0  04:59        1.52
  YS02001793           JUNCTION     1.42     2.30     7.13     0  01:52        1.93
  WS02004139           JUNCTION     0.39     0.59     5.50     0  04:12        0.59
  WSC                  OUTFALL      0.22     0.37     1.04     0  02:14        0.37
  3                    OUTFALL      0.04     0.19     6.19     0  04:50        0.19
  4                    OUTFALL      0.01     0.12     7.12     0  01:51        0.12
  5                    OUTFALL      0.00     0.00     5.00     0  00:00        0.00
  JK-storage           STORAGE      5.04     5.80     6.60     0  01:53        5.80
  CC-storage           STORAGE      1.15     1.44     8.44     0  03:00        1.44
  XR-storage           STORAGE      7.64     7.72     5.72     0  00:29        7.72
  
  
  *******************
  Node Inflow Summary
  *******************
  
  -------------------------------------------------------------------------------------------------
                                  Maximum  Maximum                  Lateral       Total        Flow
                                  Lateral    Total  Time of Max      Inflow      Inflow     Balance
                                   Inflow   Inflow   Occurrence      Volume      Volume       Error
  Node                 Type           LPS      LPS  days hr:min    10^6 ltr    10^6 ltr     Percent
  -------------------------------------------------------------------------------------------------
  WS02001211           JUNCTION      7.35   265.19     0  04:10       0.207        1.86       1.413
  WS02001212           JUNCTION      0.00   246.79     0  04:11           0        1.85       0.634
  WS02001213           JUNCTION      0.00   243.56     0  04:12           0        1.86       0.878
  WS02003069           JUNCTION      0.32   838.89     0  02:12     0.00902        8.57       0.229
  WS02003072           JUNCTION      0.00   838.69     0  02:13           0        8.55       0.303
  WS02003073           JUNCTION      1.82   840.34     0  02:13      0.0514        8.58       0.329
  WS02003060           JUNCTION     16.53   838.70     0  02:12       0.466        8.66       0.215
  WS02003066           JUNCTION      0.00   794.60     0  01:57           0        6.39       0.057
  WS02003059           JUNCTION      0.00   230.04     0  04:12           0        1.88       1.656
  WS02003067           JUNCTION      0.00   794.48     0  01:57           0         6.4       0.123
  WS02004401           JUNCTION      0.00   797.33     0  01:55           0        6.59       0.274
  WS02004402           JUNCTION      0.00   797.32     0  01:55           0        6.57       0.263
  WS02004403           JUNCTION      0.00   797.38     0  01:55           0        6.56       0.243
  WS02004404           JUNCTION      0.16   798.13     0  01:55     0.00457        6.55       0.187
  WS02004406           JUNCTION      0.00   797.63     0  01:55           0        6.52       0.459
  WS02004409           JUNCTION      0.00   797.36     0  01:55           0        6.48       0.191
  WS02004410           JUNCTION      0.00   795.43     0  01:56           0        6.47       0.222
  WS02004411           JUNCTION      0.00   794.68     0  01:56           0        6.45       0.233
  WS02004412           JUNCTION      0.00   794.44     0  01:57           0        6.44       0.260
  WS02004413           JUNCTION      0.00   794.44     0  01:57           0        6.42       0.397
  WS02004405           JUNCTION      0.04   798.55     0  01:55     0.00107        6.53       0.282
  WS02006109           JUNCTION      1.23   772.57     0  01:53      0.0347        6.59       0.177
  WS02006110           JUNCTION      0.00   772.53     0  01:53           0        6.58       0.260
  WS02006111           JUNCTION      0.00   770.95     0  01:54           0        6.56       0.054
  WS02006112           JUNCTION     26.81   797.45     0  01:55      0.0948        6.65       0.386
  WS02006113           JUNCTION      0.00   772.47     0  01:53           0        6.56       0.115
  WS02006115           JUNCTION      0.00   797.35     0  01:55           0        6.62       0.239
  WS02006116           JUNCTION      0.00   797.41     0  01:55           0        6.61       0.233
  WS02006230           JUNCTION     10.28   365.75     0  07:25        0.29         3.9       0.314
  WS02006231           JUNCTION      0.00   357.59     0  07:25           0        3.62       0.204
  WS02006232           JUNCTION      0.00   357.87     0  07:25           0        3.63       0.414
  WS02006234           JUNCTION      0.00   358.21     0  07:25           0        3.63       0.077
  WS02006235           JUNCTION      0.00   362.55     0  07:23           0        3.74       0.355
  WS02006238           JUNCTION      0.00   311.74     0  04:03           0        2.62      -0.140
  WS02006240           JUNCTION      0.00   327.36     0  04:02           0        2.61       0.410
  WS02006242           JUNCTION      0.00   335.22     0  04:01           0        2.61       0.556
  WS02006243           JUNCTION      0.00   343.00     0  04:01           0         2.6      -0.091
  WS02006245           JUNCTION      0.00   347.47     0  04:01           0        2.62       0.642
  WS02006247           JUNCTION      0.00   351.62     0  04:00           0        2.62       0.325
  WS02006248           JUNCTION      0.00   355.41     0  04:00           0        2.62       0.030
  WS02006249           JUNCTION      0.00   386.33     0  04:00           0        2.75       0.562
  WS02006239           JUNCTION      0.00   317.27     0  04:02           0        2.61      -0.021
  WS02006251           JUNCTION      0.08   400.38     0  07:20     0.00217        2.79       0.280
  WS02006252           JUNCTION      0.00   399.86     0  07:20           0        2.22       0.022
  WS02006253           JUNCTION      3.66   142.87     0  01:54      0.0117        0.57       0.675
  WS02006256           JUNCTION      0.00   599.82     0  04:50           0        2.37       0.111
  WS02004138           JUNCTION      0.00   284.95     0  04:10           0        1.62       0.043
  WS02004407           JUNCTION      0.00   797.60     0  01:55           0        6.49       0.084
  WS02006228           JUNCTION      0.00   771.36     0  01:53           0        6.57       0.170
  WS02006229           JUNCTION      0.00   773.57     0  01:52           0        6.59       0.229
  WS02006280           JUNCTION      0.00   656.05     0  01:55           0         2.7       0.003
  WS02006284           JUNCTION      0.10   655.97     0  01:55      0.0027         2.7       0.039
  WS02006287           JUNCTION      0.00   655.82     0  01:54           0         2.7       0.027
  WSF200               JUNCTION      0.00   794.55     0  01:57           0        6.39       0.046
  HS02004901           JUNCTION     32.57    32.57     0  01:50       0.114       0.115       1.559
  HS02004881           JUNCTION     13.82   139.59     0  01:54      0.0479       0.529       0.062
  HS02004876           JUNCTION     24.51   126.37     0  01:54      0.0923       0.482       0.114
  HS02004870           JUNCTION     25.44   102.13     0  01:54      0.0907        0.39       0.028
  HS02004862           JUNCTION     23.11    77.53     0  01:55       0.099       0.299       0.058
  HS02004856           JUNCTION     19.02    54.51     0  01:55      0.0682       0.202       0.722
  HS02004852           JUNCTION      0.00    36.10     0  01:55           0       0.134       0.042
  HS02004848           JUNCTION     50.49    50.49     0  01:57       0.223       0.223       0.021
  HS02004842           JUNCTION      0.00    15.55     0  02:06           0       0.102      14.561
  HS02004837           JUNCTION     49.08    62.50     0  01:55       0.337       0.426       0.191
  HS02004830           JUNCTION      0.15    62.61     0  01:55     0.00423       0.416       0.298
  HS02004824           JUNCTION     60.06   122.20     0  01:58       0.286       0.702       0.077
  HS02004817           JUNCTION      0.60   124.03     0  01:59      0.0169       0.718       2.377
  HS02004807           JUNCTION     47.25   168.28     0  01:57       0.166       0.868       0.499
  HS02004802           JUNCTION      0.00   169.25     0  01:58           0       0.865       0.461
  HS02004799           JUNCTION     37.43   414.53     0  01:52       0.135        1.57       0.166
  HS02004792           JUNCTION    160.44   377.30     0  01:52       0.598        1.44       0.028
  HS02004788           JUNCTION     53.14   218.54     0  01:52        0.24       0.839       0.047
  HS02004785           JUNCTION      0.15   165.59     0  01:52     0.00423       0.601       0.083
  HS02004777           JUNCTION      0.03   165.80     0  01:51    0.000846       0.601       0.872
  HS02004770           JUNCTION    134.74   166.64     0  01:51        0.49       0.602       0.515
  HS02004480           JUNCTION      0.00   492.22     0  01:53           0        1.85       0.064
  HS02004479           JUNCTION      0.00    78.00     0  01:53           0       0.292       0.252
  HS02004478           JUNCTION      0.00   655.77     0  01:54           0         2.7       0.013
  YS02001745           JUNCTION    386.89   386.89     0  02:16        3.55        3.55       0.324
  YS02001748           JUNCTION      0.04   397.17     0  02:15     0.00127        3.54       0.650
  YS02001751           JUNCTION      0.01   396.84     0  02:15     0.00031        3.52       0.679
  YS02001754           JUNCTION      0.26   396.81     0  02:15     0.00733         3.5       0.702
  YS02001762           JUNCTION      0.00   433.37     0  02:03           0        2.39       0.884
  YS02001765           JUNCTION      0.00   433.19     0  02:03           0        2.39       1.021
  YS02001767           JUNCTION      0.54   433.30     0  02:03      0.0151        2.41       1.494
  YS02001770           JUNCTION    491.42   704.12     0  03:01        3.94        4.91       0.641
  YS02001774           JUNCTION      0.00   704.28     0  03:01           0        3.46       0.721
  YS02001779           JUNCTION      0.01   704.36     0  03:01    0.000141        3.43       0.453
  YS02001882           JUNCTION      0.00    19.49     0  01:48           0      0.0185      10.263
  YS02001884           JUNCTION      0.00    47.74     0  01:52           0      0.0545      11.058
  YS02001759           JUNCTION    476.91   863.38     0  02:03        3.62           5       0.454
  YS02001887           JUNCTION    605.93   606.16     0  02:15        4.13        4.16       0.186
  YS02001890           JUNCTION      0.00   606.20     0  02:16           0        4.12       0.205
  YS02001898           JUNCTION      0.00   517.66     0  02:10           0           4       0.052
  YS02001901           JUNCTION      0.00   517.68     0  02:10           0           4       0.154
  YS02001904           JUNCTION      0.00   517.66     0  02:10           0           4       0.123
  YS02001907           JUNCTION      0.00  1132.40     0  01:58           0        9.14       0.243
  YS02001910           JUNCTION      0.00   621.31     0  01:58           0        5.16       0.211
  YS02001915           JUNCTION    345.21   620.83     0  01:58        2.96        5.21       0.103
  YS02001918           JUNCTION      0.00   351.13     0  01:58           0        2.28       0.058
  YS02001619           JUNCTION    336.52   336.52     0  02:16        2.95        2.95       0.413
  YS02001629           JUNCTION      0.00   244.31     0  01:47           0        1.45       2.012
  YS02001641           JUNCTION      0.00   424.51     0  01:51           0        4.86       0.433
  YS02001644           JUNCTION    367.62  1526.83     0  03:01        3.42        13.7       0.191
  YS02001652           JUNCTION      0.00   474.60     0  02:14           0        3.04       0.751
  YS02001655           JUNCTION      0.15   474.24     0  02:14     0.00434        3.07       0.822
  YS02001920           JUNCTION      2.87   351.06     0  01:58      0.0809        2.27       0.121
  YS02001923           JUNCTION      0.04   293.73     0  01:57     0.00106        2.17       0.038
  YS02001926           JUNCTION      0.05   343.98     0  01:56     0.00147        2.14       0.156
  YS02001929           JUNCTION    185.81   201.29     0  01:56        2.12        2.13       0.034
  YS02001658           JUNCTION      0.00   501.20     0  02:10           0        3.09       0.792
  YS02001661           JUNCTION      0.00   771.73     0  02:04           0        3.27       0.200
  YS02001664           JUNCTION    437.54   437.54     0  02:16         3.1        3.28       0.183
  YS02001622           JUNCTION      0.00   336.78     0  02:16           0        2.94       1.092
  YS02001633           JUNCTION    373.18   423.92     0  01:51        3.53        4.93       0.650
  YS02001649           JUNCTION      0.00   998.49     0  01:58           0        7.34       0.502
  YS02001757           JUNCTION      0.00  2131.05     0  02:02           0        9.55       0.972
  YS02001895           JUNCTION      0.00   517.56     0  02:10           0        4.01       0.118
  YS02001625           JUNCTION      0.00   336.60     0  02:16           0        2.91       1.363
  YS02163301           JUNCTION      0.00   229.73     0  01:48           0        1.44       1.679
  YS02163601           JUNCTION      0.11   424.23     0  01:51      0.0031        4.87       0.617
  YS02164001           JUNCTION      0.00   424.38     0  01:51           0        4.85       0.408
  YS02001647           JUNCTION      0.00   799.16     0  03:01           0        6.51       0.434
  YSB1154              JUNCTION     43.61    43.61     0  01:53       0.163       0.164       0.888
  YSB6556              JUNCTION      0.00    43.64     0  01:53           0       0.165       0.764
  YSB1174              JUNCTION     35.87    35.87     0  01:50        0.12        0.12       1.078
  YSB1171              JUNCTION      0.00    78.03     0  01:52           0       0.291       2.227
  YS02006553           JUNCTION      0.00   682.58     0  03:22           0        7.13       0.200
  YS02006561           JUNCTION      0.00   968.38     0  02:12           0        10.9       0.003
  YS02006556           JUNCTION      0.00   682.65     0  03:22           0        7.13       0.126
  YS02006558           JUNCTION    522.52   969.49     0  02:09        3.81        10.9       0.041
  YS02001783           JUNCTION      0.00   968.49     0  02:15           0        10.9       0.019
  YS02001784           JUNCTION      1.06   969.63     0  02:10      0.0299        10.9       0.041
  YS02001786           JUNCTION      0.06   969.40     0  02:15     0.00159        10.9       0.059
  YS02001788           JUNCTION      0.07   969.68     0  02:09       0.002        10.9       0.068
  YS02001790           JUNCTION      0.15   969.77     0  02:09     0.00437        10.9       0.136
  YS02001791           JUNCTION      0.00   969.75     0  02:09           0        10.9       0.119
  YS02001793           JUNCTION      0.00   969.87     0  02:12           0        10.9       0.144
  WS02004139           JUNCTION      0.32   283.30     0  04:10     0.00905        1.65       1.292
  WSC                  OUTFALL       0.00   840.05     0  02:14           0        8.55       0.000
  3                    OUTFALL       0.00   467.54     0  04:50           0        1.24       0.000
  4                    OUTFALL       0.00   131.29     0  01:51           0       0.111       0.000
  5                    OUTFALL       0.00     0.00     0  00:00           0           0       0.000 ltr
  JK-storage           STORAGE       0.00  1010.26     0  01:52           0          11       0.149
  CC-storage           STORAGE       0.00  2131.15     0  02:02           0        6.21       1.049
  XR-storage           STORAGE     844.69   844.69     0  03:01        12.1        12.7       0.004
  
  
  **********************
  Node Surcharge Summary
  **********************
  
  Surcharging occurs when water rises above the top of the highest conduit.
  ---------------------------------------------------------------------
                                               Max. Height   Min. Depth
                                   Hours       Above Crown    Below Rim
  Node                 Type      Surcharged         Meters       Meters
  ---------------------------------------------------------------------
  WS02004401           JUNCTION        0.52          0.102        1.558
  WS02004402           JUNCTION        0.56          0.105        1.635
  WS02004403           JUNCTION        0.57          0.095        1.935
  WS02004404           JUNCTION        0.73          0.153        2.627
  WS02004406           JUNCTION        0.67          0.100        2.350
  WS02004405           JUNCTION        0.70          0.131        2.669
  WS02006109           JUNCTION        1.41          0.423        1.397
  WS02006110           JUNCTION        0.98          0.187        1.663
  WS02006112           JUNCTION        1.08          0.373        1.307
  WS02006115           JUNCTION        0.18          0.041        2.209
  WS02006116           JUNCTION        0.22          0.050        2.240
  WS02006230           JUNCTION        0.69          0.267        1.303
  WS02006231           JUNCTION        0.71          0.270        1.260
  WS02006232           JUNCTION        1.01          0.378        1.102
  WS02006234           JUNCTION        0.72          0.240        1.000
  WS02006235           JUNCTION        0.78          0.257        1.033
  WS02006238           JUNCTION        0.82          0.268        1.162
  WS02006240           JUNCTION        0.56          0.148        1.242
  WS02006242           JUNCTION        0.62          0.158        0.662
  WS02006243           JUNCTION        0.13          0.040        0.730
  WS02006239           JUNCTION        0.70          0.188        1.102
  WS02006252           JUNCTION        0.25          0.187        0.913
  WS02006228           JUNCTION        1.39          0.525        1.675
  YS02001748           JUNCTION        5.99          0.305        0.885
  YS02001751           JUNCTION        6.02          0.730        0.470
  YS02001754           JUNCTION        6.05          0.800        0.350
  YS02001762           JUNCTION        6.09          1.050        0.100
  YS02001765           JUNCTION        6.08          0.996        0.104
  YS02001767           JUNCTION        6.07          0.951        0.079
  YS02001770           JUNCTION        6.07          0.901        0.019
  YS02001774           JUNCTION        6.08          0.985        0.065
  YS02001779           JUNCTION        6.04          0.680        0.000
  YS02001882           JUNCTION        1.78          0.830        0.000
  YS02001884           JUNCTION        1.81          0.841        0.029
  YS02001759           JUNCTION        6.09          1.088        0.122
  YS02001887           JUNCTION        1.89          0.849        0.101
  YS02001890           JUNCTION        1.92          0.760        0.000
  YS02001898           JUNCTION        1.74          0.576        0.164
  YS02001901           JUNCTION        1.86          0.701        0.169
  YS02001904           JUNCTION        1.84          0.649        0.201
  YS02001907           JUNCTION        2.26          0.950        0.000
  YS02001910           JUNCTION        1.96          0.887        0.213
  YS02001915           JUNCTION        1.77          0.841        0.159
  YS02001918           JUNCTION        1.55          0.599        0.211
  YS02001619           JUNCTION        6.02          0.610        0.000
  YS02001629           JUNCTION        6.02          0.470        0.000
  YS02001641           JUNCTION        6.08          0.940        0.160
  YS02001644           JUNCTION        6.08          0.920        0.000
  YS02001652           JUNCTION        6.05          1.037        0.093
  YS02001655           JUNCTION        6.02          0.994        0.206
  YS02001920           JUNCTION        1.58          0.691        0.449
  YS02001923           JUNCTION        0.01          0.368        0.452
  YS02001926           JUNCTION        0.01          0.900        0.000
  YS02001658           JUNCTION        5.99          0.981        0.319
  YS02001661           JUNCTION        0.13          0.928        0.462
  YS02001622           JUNCTION        6.02          0.620        0.000
  YS02001633           JUNCTION        6.08          0.925        0.135
  YS02001649           JUNCTION        6.08          1.050        0.000
  YS02001757           JUNCTION        6.12          1.188        0.022
  YS02001895           JUNCTION        1.76          0.591        0.159
  YS02001625           JUNCTION        6.05          0.780        0.000
  YS02163301           JUNCTION        6.07          0.922        0.108
  YS02163601           JUNCTION        6.09          0.994        0.086
  YS02164001           JUNCTION        6.08          0.920        0.180
  YS02001647           JUNCTION        6.05          0.807        0.093
  YS02006553           JUNCTION        2.31          0.974        0.216
  YS02006561           JUNCTION        1.67          0.591        0.559
  YS02006556           JUNCTION        2.12          0.912        0.438
  YS02006558           JUNCTION        2.10          0.889        0.511
  YS02001783           JUNCTION        2.15          0.874        0.726
  YS02001784           JUNCTION        2.19          1.083        0.407
  YS02001786           JUNCTION        2.13          1.430        0.000
  YS02001788           JUNCTION        2.11          1.480        0.000
  YS02001790           JUNCTION        4.62          1.157        0.000
  YS02001791           JUNCTION        4.92          1.920        0.000
  YS02001793           JUNCTION        5.48          1.297        1.303
  
  
  *********************
  Node Flooding Summary
  *********************
  
  Flooding refers to all water that overflows a node, whether it ponds or not.
  --------------------------------------------------------------------------
                                                             Total   Maximum
                                 Maximum   Time of Max       Flood    Ponded
                        Hours       Rate    Occurrence      Volume     Depth
  Node                 Flooded       LPS   days hr:min    10^6 ltr    Meters
  --------------------------------------------------------------------------
  YS02001779              3.38    704.35      0  03:01       3.412     0.000
  YS02001882              0.01      7.00      0  01:54       0.000     0.000
  YS02001890              0.57     90.48      0  02:15       0.102     0.000
  YS02001907              1.40    602.52      0  01:58       2.005     0.000
  YS02001619              0.01     57.16      0  01:47       0.000     0.000
  YS02001629              0.01    190.07      0  01:47       0.001     0.000
  YS02001644              5.48   1526.81      0  03:01      12.504     0.000
  YS02001622              0.01     52.55      0  01:48       0.000     0.000
  YS02001649              0.03     30.61      0  02:17       0.001     0.000
  YS02001625              1.98    326.20      0  02:16       1.444     0.000
  YS02001786              0.01     90.20      0  01:53       0.000     0.000
  YS02001788              0.01    157.50      0  01:53       0.000     0.000
  YS02001790              0.01    207.56      0  01:53       0.000     0.000
  YS02001791              0.01    231.84      0  04:59       0.000     0.000
  JK-storage              4.11    969.70      0  02:09       8.396     0.000
  XR-storage              7.35    842.16      0  03:00      10.157     0.000
  
  
  **********************
  Storage Volume Summary
  **********************
  
  --------------------------------------------------------------------------------------------------
                         Average     Avg  Evap Exfil       Maximum     Max    Time of Max    Maximum
                          Volume    Pcnt  Pcnt  Pcnt        Volume    Pcnt     Occurrence    Outflow
  Storage Unit           1000 m3    Full  Loss  Loss       1000 m3    Full    days hr:min        LPS
  --------------------------------------------------------------------------------------------------
  JK-storage               0.253      87     0     0         0.291     100       0  01:53     599.82
  CC-storage               3.216      20     0     0         4.019      26       0  03:00     399.86
  XR-storage               0.917      99     0     0         0.926     100       0  00:29     284.95
  
  
  ***********************
  Outfall Loading Summary
  ***********************
  
  -----------------------------------------------------------
                         Flow       Avg       Max       Total
                         Freq      Flow      Flow      Volume
  Outfall Node           Pcnt       LPS       LPS    10^6 ltr
  -----------------------------------------------------------
  WSC                   99.99    336.73    840.05       8.551
  3                     50.83    133.40    467.54       1.242
  4                     15.64     36.43    131.29       0.111
  5                      0.00      0.00      0.00       0.000
  -----------------------------------------------------------
  System                41.61    506.56   1125.72       9.904
  
  
  ********************
  Link Flow Summary
  ********************
  
  -----------------------------------------------------------------------------
                                 Maximum  Time of Max   Maximum    Max/    Max/
                                  |Flow|   Occurrence   |Veloc|    Full    Full
  Link                 Type          LPS  days hr:min     m/sec    Flow   Depth
  -----------------------------------------------------------------------------
  WS02003066WSF200     CONDUIT    794.55     0  01:57      3.16    0.13    0.28
  WS02006287WS02006284 CONDUIT    655.87     0  01:55      2.36    0.30    0.38
  WS02006284WS02006280 CONDUIT    656.05     0  01:55      2.59    0.27    0.36
  WS02006280WS02006229 CONDUIT    656.06     0  01:55      4.21    0.14    0.25
  WS02006229WS02006228 CONDUIT    771.36     0  01:53      1.53    2.55    1.00
  WS02006256WS02006235 CONDUIT    166.25     0  00:01      2.58    1.76    1.00
  WS02006253WS02006251 CONDUIT    150.01     0  01:51      0.61    0.45    0.87
  WS02006252WS02006251 CONDUIT    400.31     0  07:20      3.19    1.47    1.00
  WS02006251WS02006249 CONDUIT    386.33     0  04:00      1.16    1.11    0.86
  WS02006249WS02006248 CONDUIT    355.41     0  04:00      1.18    1.95    0.87
  WS02006248WS02006247 CONDUIT    351.62     0  04:00      1.15    0.77    0.94
  WS02006247WS02006245 CONDUIT    347.47     0  04:01      1.13    2.76    0.99
  WS02006245WS02006243 CONDUIT    343.00     0  04:01      1.18    1.01    1.00
  WS02006243WS02006242 CONDUIT    335.22     0  04:01      1.06    0.72    1.00
  WS02006242WS02006240 CONDUIT    327.36     0  04:02      1.00    1.30    1.00
  WS02006240WS02006239 CONDUIT    317.27     0  04:02      1.07    1.00    1.00
  WS02006239WS02006238 CONDUIT    311.74     0  04:03      0.96    1.00    1.00
  WS02006238WS02006235 CONDUIT    310.90     0  04:02      1.25    0.69    1.00
  WS02006235WS02006234 CONDUIT    358.21     0  07:25      1.08    3.78    1.00
  WS02006234WS02006232 CONDUIT    357.87     0  07:25      1.13    0.72    1.00
  WS02006232WS02006231 CONDUIT    357.59     0  07:25      1.02    0.75    1.00
  WS02006231WS02006230 CONDUIT    355.47     0  07:25      1.36    5.39    1.00
  WS02006230WS02006229 CONDUIT    360.63     0  07:25      0.94    8.03    1.00
  WS02006228WS02006109 CONDUIT    771.34     0  01:53      1.53    3.37    1.00
  WS02006116WS02004401 CONDUIT    797.33     0  01:55      1.02    1.10    1.00
  WS02006115WS02006116 CONDUIT    797.41     0  01:55      1.02    1.02    1.00
  WS02006113WS02006111 CONDUIT    770.95     0  01:54      2.63    0.92    0.74
  WS02006112WS02006115 CONDUIT    797.35     0  01:55      1.02    0.47    1.00
  WS02006111WS02006112 CONDUIT    772.30     0  01:55      1.75    0.37    0.86
  WS02006110WS02006113 CONDUIT    772.47     0  01:53      1.69    0.70    0.87
  WS02006109WS02006110 CONDUIT    772.53     0  01:53      1.54    1.49    1.00
  WS02004411WS02004412 CONDUIT    794.44     0  01:57      1.14    1.13    0.83
  WS02004401WS02004402 CONDUIT    797.32     0  01:55      1.02    0.96    1.00
  WS02004413WS02003067 CONDUIT    794.48     0  01:57      1.38    0.34    0.69
  WS02004412WS02004413 CONDUIT    794.44     0  01:57      1.07    0.53    0.90
  WS02004410WS02004411 CONDUIT    794.68     0  01:56      1.13    1.09    0.84
  WS02004409WS02004410 CONDUIT    795.43     0  01:56      1.13    1.03    0.85
  WS02004407WS02004409 CONDUIT    797.36     0  01:55      1.64    0.28    0.60
  WS02004406WS02004407 CONDUIT    797.60     0  01:55      1.40    0.36    0.68
  WS02004405WS02004406 CONDUIT    797.63     0  01:55      1.02    1.57    1.00
  WS02004404WS02004405 CONDUIT    798.51     0  01:55      1.02    7.82    1.00
  WS02004403WS02004404 CONDUIT    797.97     0  01:55      1.02    0.58    1.00
  WS02004402WS02004403 CONDUIT    797.38     0  01:55      1.02    1.15    1.00
  WS02004139WS02001211 CONDUIT    257.84     0  04:10      0.50    0.33    0.47
  WS02004138WS02004139 CONDUIT    282.98     0  04:10      1.19    0.06    0.35
  WS02003067WS02003066 CONDUIT    794.60     0  01:57      1.51    0.25    0.47
  WS02001213WS02003059 CONDUIT    230.04     0  04:12      0.49    0.38    0.69
  WS02001212WS02001213 CONDUIT    243.56     0  04:12      1.11    0.38    0.35
  WS02001211WS02001212 CONDUIT    246.79     0  04:11      0.62    0.19    0.51
  WS02003072WS02003073 CONDUIT    838.52     0  02:13      1.66    1.81    0.46
  WS02003069WS02003072 CONDUIT    838.69     0  02:13      1.56    0.40    0.48
  WS02003060WS02003069 CONDUIT    838.57     0  02:12      1.81    0.33    0.43
  WS02003059WS02003060 CONDUIT    217.41     0  04:14      0.63    0.14    0.61
  HS02004901HS02004770 CONDUIT     31.95     0  01:52      0.09    0.12    0.51
  HS02004876HS02004881 CONDUIT    126.38     0  01:55      1.20    1.34    0.15
  HS02004870HS02004876 CONDUIT    102.10     0  01:55      0.82    0.07    0.18
  HS02004842HS02004848 CONDUIT     15.55     0  02:06      0.07    0.01    0.33
  HS02004837HS02004842 CONDUIT     15.96     0  02:07      0.41    0.01    0.35
  HS02004830HS02004837 CONDUIT     62.46     0  01:55      0.66    0.06    0.14
  HS02004824HS02004830 CONDUIT     62.57     0  01:56      0.62    0.08    0.16
  HS02004817HS02004824 CONDUIT    123.43     0  01:59      0.31    0.06    0.58
  HS02004770HS02004777 CONDUIT    165.77     0  01:51      0.46    0.30    0.52
  HS02004799HS02004480 CONDUIT    414.30     0  01:53      1.02    0.52    0.58
  HS02004792HS02004799 CONDUIT    377.21     0  01:52      1.15    0.23    0.47
  HS02004788HS02004792 CONDUIT    218.44     0  01:53      1.24    0.14    0.25
  HS02004785HS02004788 CONDUIT    165.54     0  01:53      0.86    1.25    0.27
  HS02004777HS02004785 CONDUIT    165.44     0  01:52      0.54    0.20    0.44
  HS02004480HS02004478 CONDUIT    492.14     0  01:53      1.52    2.07    0.46
  HS02004479HS02004480 CONDUIT     78.30     0  01:54      0.27    0.08    0.55
  HS02004862HS02004870 CONDUIT     77.52     0  01:55      0.79    0.08    0.14
  HS02004848HS02004852 CONDUIT     36.10     0  01:55      0.52    0.04    0.10
  HS02004856HS02004862 CONDUIT     54.46     0  01:55      0.59    0.05    0.13
  HS02004852HS02004856 CONDUIT     36.15     0  01:56      0.33    0.04    0.16
  HS02004802HS02004478 CONDUIT    170.22     0  01:58      0.53    0.15    0.47
  HS02004478WS02006287 CONDUIT    655.82     0  01:54      2.08    0.18    0.35
  HS02004817HS02004807 CONDUIT    125.36     0  01:59      0.24    0.07    0.75
  HS02004807HS02004802 CONDUIT    169.25     0  01:58      0.47    0.32    0.53
  YS02001759YS02001757 CONDUIT    863.06     0  02:03      1.10    0.61    1.00
  YS02001762YS02001759 CONDUIT    432.99     0  02:03      0.55    0.50    1.00
  YS02001765YS02001762 CONDUIT    433.37     0  02:03      0.55    0.41    1.00
  YS02001770YS02001767 CONDUIT    432.77     0  02:03      0.55    1.71    1.00
  YS02001774YS02001770 CONDUIT    704.28     0  03:01      0.90    0.45    1.00
  YS02001779YS02001774 CONDUIT    704.36     0  03:01      0.90    0.35    1.00
  YS02001649YS02001757 CONDUIT    999.31     0  01:58      1.27    0.61    1.00
  YS02001767YS02001765 CONDUIT    433.19     0  02:03      0.55    0.54    1.00
  YS02006561YS02001783 CONDUIT    968.49     0  02:15      2.18    0.50    1.00
  YS02001783YS02001784 CONDUIT    968.57     0  02:10      1.93    1.34    1.00
  YS02001784YS02001785 CONDUIT    969.35     0  02:15      1.93    2.26    1.00
  YS02001788YS02001790 CONDUIT    969.61     0  02:09      2.41    0.71    1.00
  YS02001790YS02001791 CONDUIT    969.75     0  02:09      2.94    1.06    1.00
  YS02001791YS02001793 CONDUIT    969.87     0  02:12      5.81    0.42    1.00
  YS02001910YS02001907 CONDUIT    621.02     0  01:58      0.79    0.35    1.00
  YS02001786YS02001788 CONDUIT    969.61     0  02:09      2.31    1.87    1.00
  YS02001915YS02001910 CONDUIT    621.31     0  01:58      0.79    0.31    1.00
  YS02001918YS02001915 CONDUIT    351.56     0  01:58      0.46    0.19    1.00
  YS02001923YS02001920 CONDUIT    348.19     0  01:58      0.78    0.16    1.00
  YS02001926YS02001923 CONDUIT    294.74     0  01:56      0.87    0.42    1.00
  YS02001929YS02001926 CONDUIT    209.75     0  01:58      0.93    0.10    0.95
  YS02001920YS02001918 CONDUIT    351.13     0  01:58      0.75    0.34    1.00
  YS02001629YS02163301 CONDUIT    229.73     0  01:48      0.29    0.28    1.00
  YS02001619YS02001622 CONDUIT    336.78     0  02:16      0.76    0.50    1.00
  YS02001622YS02001625 CONDUIT    336.60     0  02:16      0.43    0.18    1.00
  YS02001625YS02001629 CONDUIT    209.73     0  01:47      0.31    0.10    1.00
  YS02163301YS02001633 CONDUIT    229.53     0  01:48      0.29    0.22    1.00
  YS02163601YS02164001 CONDUIT    424.38     0  01:51      0.54    0.38    1.00
  YS02164001YS02001641 CONDUIT    424.51     0  01:51      0.54    0.58    1.00
  YS02001641YS02001644 CONDUIT    424.68     0  01:51      0.54    1.37    1.00
  YS02001647YS02001649 CONDUIT    799.16     0  03:01      1.02    0.42    1.00
  YS02006553YS02006556 CONDUIT    682.65     0  03:22      0.87    0.58    1.00
  YS02006556YS02006558 CONDUIT    682.78     0  03:22      0.87    0.54    1.00
  YSB6556YSB1171       CONDUIT     43.97     0  01:54      0.13    0.05    0.82
  YS02001907YS02006553 CONDUIT    682.58     0  03:22      0.76    0.80    1.00
  YS02006558YS02006561 CONDUIT    968.38     0  02:12      3.55    2.14    1.00
  YS02001633YS02163601 CONDUIT    424.12     0  01:51      0.54    0.45    1.00
  YS02001644YS02001647 CONDUIT    799.28     0  03:01      1.02    0.47    1.00
  YS02001745YS02001748 CONDUIT    397.13     0  02:15      1.73    0.15    0.98
  YS02001748YS02001751 CONDUIT    396.83     0  02:15      1.25    0.20    1.00
  YS02001751YS02001754 CONDUIT    396.55     0  02:15      1.03    0.19    1.00
  YS02001754YS02001757 CONDUIT    396.75     0  02:15      0.51    0.16    1.00
  YS02001882YS02001884 CONDUIT     19.49     0  01:48      0.12    0.02    1.00
  YS02001884YS02001887 CONDUIT     47.74     0  01:52      0.09    0.06    1.00
  YS02001890YS02001895 CONDUIT    517.56     0  02:10      0.66    0.24    1.00
  YS02001895YS02001898 CONDUIT    517.66     0  02:10      0.66    0.90    1.00
  YS02001898YS02001901 CONDUIT    517.68     0  02:10      0.66    0.33    1.00
  YS02001901YS02001904 CONDUIT    517.66     0  02:10      0.66    0.80    1.00
  YS02001904YS02001907 CONDUIT    518.28     0  01:54      0.66    0.18    1.00
  YS02001887YS02001890 CONDUIT    606.20     0  02:16      0.77    1.04    1.00
  YS02001652YS02001649 CONDUIT    475.17     0  02:13      0.60    0.24    1.00
  YS02001655YS02001652 CONDUIT    474.60     0  02:14      1.09    0.23    1.00
  YS02001658YS02001655 CONDUIT    474.09     0  02:14      1.45    0.20    1.00
  YS02001661YS02001658 CONDUIT    501.20     0  02:10      1.85    0.20    1.00
  YS02001664YS02001661 CONDUIT    771.73     0  02:04      1.75    0.24    0.77
  YSB1154YSB6556       CONDUIT     43.64     0  01:53      0.17    0.08    0.72
  YSB1174YSB1171       CONDUIT     35.14     0  01:50      0.10    0.05    0.83
  YSB1171HS02004479    CONDUIT     78.00     0  01:53      0.54    0.05    0.67
  HS02004881HS02006253 CONDUIT    139.59     0  01:55      2.33    0.03    0.25
  YS02001793JiankangQianchi CONDUIT   1010.26     0  01:52     12.69    0.08    1.00
  YS02001757CaochengTiaoxuchi CONDUIT   2131.15     0  02:02      3.70    0.94    1.00
  WSF200WS02003060     CONDUIT    793.36     0  01:58      2.44    0.18    0.35
  1                    CONDUIT    840.05     0  02:14      3.17    0.29    0.37
  2                    CONDUIT    131.29     0  01:51      5.23    0.31    0.39
  3                    CONDUIT    467.54     0  04:50      9.68    0.74    0.65
  4                    CONDUIT      0.00     0  00:00      0.00    0.00    0.00
  CC-Pump-1            PUMP       199.96     0  04:30              1.00
  CC-Pump-2            PUMP       200.00     0  07:40              1.00
  JK-Pump-1            PUMP       300.00     0  00:00              1.00
  JK-Pump-2            PUMP       300.00     0  04:40              1.00
  XR-Pump-1            PUMP        95.00     0  01:00              1.00
  XR-Pump-2            PUMP        94.95     0  06:40              1.00
  XR-Pump-3            PUMP        94.98     0  04:10              1.00
  XR-Pump-4            PUMP        95.00     0  01:10              1.00
  
  
  ***************************
  Flow Classification Summary
  ***************************
  
  -------------------------------------------------------------------------------------
                      Adjusted    ---------- Fraction of Time in Flow Class ---------- 
                       /Actual         Up    Down  Sub   Sup   Up    Down  Norm  Inlet 
  Conduit               Length    Dry  Dry   Dry   Crit  Crit  Crit  Crit  Ltd   Ctrl  
  -------------------------------------------------------------------------------------
  WS02003066WSF200        1.00   0.08  0.00  0.00  0.00  0.92  0.00  0.00  0.62  0.00
  WS02006287WS02006284    1.00   0.05  0.01  0.00  0.59  0.35  0.00  0.00  0.65  0.00
  WS02006284WS02006280    1.00   0.06  0.00  0.00  0.00  0.00  0.00  0.94  0.00  0.00
  WS02006280WS02006229    1.00   0.06  0.00  0.00  0.00  0.00  0.00  0.94  0.00  0.00
  WS02006229WS02006228    1.00   0.00  0.00  0.00  0.98  0.00  0.00  0.02  0.00  0.00
  WS02006256WS02006235    1.00   0.00  0.00  0.00  1.00  0.00  0.00  0.00  0.00  0.00
  WS02006253WS02006251    1.00   0.04  0.01  0.00  0.94  0.00  0.00  0.00  0.00  0.00
  WS02006252WS02006251    1.00   0.09  0.00  0.00  0.00  0.00  0.91  0.00  0.00  0.00
  WS02006251WS02006249    1.00   0.00  0.00  0.00  1.00  0.00  0.00  0.00  0.34  0.00
  WS02006249WS02006248    1.00   0.00  0.03  0.00  0.81  0.00  0.16  0.00  0.00  0.00
  WS02006248WS02006247    1.00   0.03  0.00  0.00  0.97  0.00  0.00  0.00  0.24  0.00
  WS02006247WS02006245    1.00   0.03  0.00  0.00  0.95  0.00  0.00  0.02  0.00  0.00
  WS02006245WS02006243    1.00   0.02  0.01  0.00  0.90  0.00  0.00  0.07  0.02  0.00
  WS02006243WS02006242    1.00   0.01  0.00  0.00  0.98  0.00  0.00  0.00  0.33  0.00
  WS02006242WS02006240    1.00   0.00  0.00  0.00  0.98  0.00  0.01  0.00  0.00  0.00
  WS02006240WS02006239    1.00   0.00  0.00  0.00  0.90  0.00  0.00  0.09  0.01  0.00
  WS02006239WS02006238    1.00   0.00  0.00  0.00  1.00  0.00  0.00  0.00  0.06  0.00
  WS02006238WS02006235    1.00   0.00  0.00  0.00  1.00  0.00  0.00  0.00  0.00  0.00
  WS02006235WS02006234    1.00   0.00  0.00  0.00  0.94  0.00  0.06  0.00  0.00  0.00
  WS02006234WS02006232    1.00   0.00  0.00  0.00  1.00  0.00  0.00  0.00  0.04  0.00
  WS02006232WS02006231    1.00   0.00  0.00  0.00  0.99  0.00  0.01  0.00  0.00  0.00
  WS02006231WS02006230    1.00   0.00  0.00  0.00  0.31  0.00  0.68  0.00  0.00  0.00
  WS02006230WS02006229    1.00   0.00  0.00  0.00  0.98  0.00  0.00  0.02  0.01  0.00
  WS02006228WS02006109    1.00   0.00  0.00  0.00  0.99  0.00  0.00  0.00  0.00  0.00
  WS02006116WS02004401    1.00   0.03  0.00  0.00  0.97  0.00  0.00  0.00  0.00  0.00
  WS02006115WS02006116    1.00   0.03  0.00  0.00  0.96  0.00  0.00  0.01  0.00  0.00
  WS02006113WS02006111    1.00   0.03  0.00  0.00  0.03  0.94  0.00  0.00  0.16  0.00
  WS02006112WS02006115    1.00   0.03  0.00  0.00  0.97  0.00  0.00  0.00  0.00  0.00
  WS02006111WS02006112    1.00   0.03  0.00  0.00  0.97  0.00  0.00  0.00  0.89  0.00
  WS02006110WS02006113    1.00   0.01  0.01  0.00  0.98  0.00  0.00  0.00  0.00  0.00
  WS02006109WS02006110    1.00   0.00  0.01  0.00  0.98  0.00  0.01  0.00  0.00  0.00
  WS02004411WS02004412    1.00   0.05  0.00  0.00  0.95  0.00  0.00  0.00  0.00  0.00
  WS02004401WS02004402    1.00   0.03  0.00  0.00  0.97  0.00  0.00  0.00  0.00  0.00
  WS02004413WS02003067    1.00   0.05  0.02  0.00  0.00  0.00  0.93  0.00  0.00  0.00
  WS02004412WS02004413    1.00   0.05  0.00  0.00  0.95  0.00  0.00  0.00  0.04  0.00
  WS02004410WS02004411    1.00   0.05  0.00  0.00  0.95  0.00  0.00  0.00  0.03  0.00
  WS02004409WS02004410    1.00   0.05  0.00  0.00  0.95  0.00  0.00  0.00  0.02  0.00
  WS02004407WS02004409    1.00   0.05  0.00  0.00  0.95  0.00  0.00  0.00  0.89  0.00
  WS02004406WS02004407    1.00   0.00  0.05  0.00  0.95  0.00  0.00  0.00  0.00  0.00
  WS02004405WS02004406    1.00   0.00  0.00  0.00  1.00  0.00  0.00  0.00  0.01  0.00
  WS02004404WS02004405    1.00   0.00  0.00  0.00  1.00  0.00  0.00  0.00  0.00  0.00
  WS02004403WS02004404    1.00   0.00  0.03  0.00  0.97  0.00  0.00  0.00  0.01  0.00
  WS02004402WS02004403    1.00   0.03  0.00  0.00  0.97  0.00  0.00  0.00  0.00  0.00
  WS02004139WS02001211    1.00   0.00  0.01  0.00  0.99  0.00  0.00  0.00  0.00  0.00
  WS02004138WS02004139    1.00   0.02  0.04  0.00  0.93  0.00  0.00  0.00  0.96  0.00
  WS02003067WS02003066    1.00   0.07  0.01  0.00  0.92  0.00  0.00  0.00  0.00  0.00
  WS02001213WS02003059    1.00   0.00  0.01  0.00  0.99  0.00  0.00  0.00  0.00  0.00
  WS02001212WS02001213    1.00   0.04  0.00  0.00  0.54  0.00  0.42  0.00  0.00  0.00
  WS02001211WS02001212    1.00   0.00  0.04  0.00  0.96  0.00  0.00  0.00  0.00  0.00
  WS02003072WS02003073    1.00   0.00  0.00  0.00  0.00  0.00  0.00  1.00  0.00  0.00
  WS02003069WS02003072    1.00   0.00  0.00  0.00  0.99  0.01  0.00  0.00  0.67  0.00
  WS02003060WS02003069    1.00   0.00  0.00  0.00  0.95  0.05  0.00  0.00  0.43  0.00
  WS02003059WS02003060    1.00   0.00  0.00  0.00  0.99  0.01  0.00  0.00  0.06  0.00
  HS02004901HS02004770    1.00   0.05  0.00  0.00  0.95  0.00  0.00  0.00  0.00  0.00
  HS02004876HS02004881    1.00   0.03  0.00  0.00  0.83  0.14  0.00  0.00  0.00  0.00
  HS02004870HS02004876    1.00   0.01  0.00  0.00  0.99  0.00  0.00  0.00  0.95  0.00
  HS02004842HS02004848    1.00   0.00  0.05  0.00  0.95  0.00  0.00  0.00  0.57  0.00
  HS02004837HS02004842    1.00   0.00  0.00  0.00  0.99  0.01  0.00  0.00  0.11  0.00
  HS02004830HS02004837    1.00   0.00  0.00  0.00  1.00  0.00  0.00  0.00  0.99  0.00
  HS02004824HS02004830    1.00   0.00  0.00  0.00  1.00  0.00  0.00  0.00  0.03  0.00
  HS02004817HS02004824    1.00   0.00  0.00  0.00  1.00  0.00  0.00  0.00  0.94  0.00
  HS02004770HS02004777    1.00   0.00  0.05  0.00  0.95  0.00  0.00  0.00  0.03  0.00
  HS02004799HS02004480    1.00   0.00  0.03  0.00  0.94  0.00  0.03  0.00  0.00  0.00
  HS02004792HS02004799    1.00   0.00  0.00  0.00  0.98  0.02  0.00  0.00  0.98  0.00
  HS02004788HS02004792    1.00   0.00  0.00  0.00  0.99  0.01  0.00  0.00  0.98  0.00
  HS02004785HS02004788    1.00   0.00  0.00  0.00  1.00  0.00  0.00  0.00  0.00  0.00
  HS02004777HS02004785    1.00   0.00  0.00  0.00  1.00  0.00  0.00  0.00  0.13  0.00
  HS02004480HS02004478    1.00   0.06  0.00  0.00  0.63  0.00  0.00  0.32  0.00  0.00
  HS02004479HS02004480    1.00   0.03  0.00  0.00  0.97  0.00  0.00  0.00  0.12  0.00
  HS02004862HS02004870    1.00   0.00  0.00  0.00  1.00  0.00  0.00  0.00  0.04  0.00
  HS02004848HS02004852    1.00   0.05  0.00  0.00  0.95  0.00  0.00  0.00  0.78  0.00
  HS02004856HS02004862    1.00   0.00  0.06  0.00  0.94  0.00  0.00  0.00  0.82  0.00
  HS02004852HS02004856    1.00   0.05  0.00  0.00  0.94  0.00  0.00  0.00  0.77  0.00
  HS02004802HS02004478    1.00   0.06  0.00  0.00  0.94  0.00  0.00  0.00  0.03  0.00
  HS02004478WS02006287    1.00   0.06  0.00  0.00  0.68  0.26  0.00  0.00  0.62  0.00
  HS02004817HS02004807    1.00   0.00  0.05  0.00  0.95  0.00  0.00  0.00  0.01  0.00
  HS02004807HS02004802    1.00   0.05  0.00  0.00  0.94  0.00  0.00  0.00  0.00  0.00
  YS02001759YS02001757    1.00   0.00  0.00  0.00  1.00  0.00  0.00  0.00  0.16  0.00
  YS02001762YS02001759    1.00   0.00  0.00  0.00  1.00  0.00  0.00  0.00  0.03  0.00
  YS02001765YS02001762    1.00   0.00  0.00  0.00  1.00  0.00  0.00  0.00  0.14  0.00
  YS02001770YS02001767    1.00   0.00  0.00  0.00  1.00  0.00  0.00  0.00  0.00  0.00
  YS02001774YS02001770    1.00   0.00  0.05  0.00  0.94  0.00  0.00  0.00  0.03  0.00
  YS02001779YS02001774    1.00   0.00  0.00  0.00  1.00  0.00  0.00  0.00  0.18  0.00
  YS02001649YS02001757    1.00   0.00  0.00  0.00  1.00  0.00  0.00  0.00  0.16  0.00
  YS02001767YS02001765    1.00   0.00  0.00  0.00  1.00  0.00  0.00  0.00  0.00  0.00
  YS02006561YS02001783    1.00   0.07  0.00  0.00  0.66  0.27  0.00  0.00  0.51  0.00
  YS02001783YS02001784    1.00   0.00  0.07  0.00  0.93  0.00  0.00  0.00  0.00  0.00
  YS02001784YS02001785    1.00   0.00  0.00  0.00  1.00  0.00  0.00  0.00  0.18  0.00
  YS02001788YS02001790    1.00   0.00  0.00  0.00  0.85  0.15  0.00  0.00  0.29  0.00
  YS02001790YS02001791    1.00   0.00  0.00  0.00  0.85  0.15  0.00  0.00  0.08  0.00
  YS02001791YS02001793    1.00   0.00  0.00  0.00  0.88  0.12  0.00  0.00  0.03  0.00
  YS02001910YS02001907    1.00   0.00  0.00  0.00  0.97  0.00  0.00  0.03  0.12  0.00
  YS02001786YS02001788    1.00   0.00  0.00  0.00  0.79  0.21  0.00  0.00  0.00  0.00
  YS02001915YS02001910    1.00   0.00  0.00  0.00  0.98  0.02  0.00  0.00  0.16  0.00
  YS02001918YS02001915    1.00   0.00  0.01  0.00  0.97  0.02  0.00  0.00  0.52  0.00
  YS02001923YS02001920    1.00   0.00  0.00  0.00  1.00  0.00  0.00  0.00  0.74  0.00
  YS02001926YS02001923    1.00   0.00  0.04  0.00  0.26  0.00  0.70  0.00  0.00  0.00
  YS02001929YS02001926    1.00   0.00  0.05  0.00  0.95  0.00  0.00  0.00  0.66  0.00
  YS02001920YS02001918    1.00   0.00  0.01  0.00  0.99  0.00  0.00  0.00  0.00  0.00
  YS02001629YS02163301    1.00   0.06  0.00  0.00  0.94  0.00  0.00  0.00  0.00  0.00
  YS02001619YS02001622    1.00   0.05  0.00  0.00  0.95  0.00  0.00  0.00  0.00  0.00
  YS02001622YS02001625    1.00   0.05  0.00  0.00  0.95  0.00  0.00  0.00  0.05  0.00
  YS02001625YS02001629    1.00   0.06  0.01  0.00  0.92  0.00  0.01  0.00  0.00  0.00
  YS02163301YS02001633    1.00   0.00  0.06  0.00  0.94  0.00  0.00  0.00  0.00  0.00
  YS02163601YS02164001    1.00   0.00  0.04  0.00  0.96  0.00  0.00  0.00  0.00  0.00
  YS02164001YS02001641    1.00   0.01  0.03  0.00  0.96  0.00  0.00  0.00  0.06  0.00
  YS02001641YS02001644    1.00   0.00  0.01  0.00  0.99  0.00  0.00  0.00  0.00  0.00
  YS02001647YS02001649    1.00   0.00  0.06  0.00  0.93  0.00  0.00  0.00  0.01  0.00
  YS02006553YS02006556    1.00   0.02  0.00  0.00  0.98  0.00  0.00  0.00  0.03  0.00
  YS02006556YS02006558    1.00   0.00  0.00  0.00  1.00  0.00  0.00  0.00  0.00  0.00
  YSB6556YSB1171          1.00   0.04  0.02  0.00  0.95  0.00  0.00  0.00  0.00  0.00
  YS02001907YS02006553    1.00   0.00  0.03  0.00  0.97  0.00  0.00  0.00  0.00  0.00
  YS02006558YS02006561    1.00   0.07  0.00  0.00  0.27  0.66  0.00  0.00  0.43  0.00
  YS02001633YS02163601    1.00   0.00  0.01  0.00  0.99  0.00  0.00  0.00  0.15  0.00
  YS02001644YS02001647    1.00   0.00  0.07  0.00  0.93  0.00  0.00  0.00  0.00  0.00
  YS02001745YS02001748    1.00   0.00  0.00  0.00  0.90  0.00  0.00  0.10  0.01  0.00
  YS02001748YS02001751    1.00   0.00  0.00  0.00  0.97  0.03  0.00  0.00  0.14  0.00
  YS02001751YS02001754    1.00   0.00  0.00  0.00  0.93  0.00  0.00  0.07  0.01  0.00
  YS02001754YS02001757    1.00   0.00  0.00  0.00  0.99  0.01  0.00  0.00  0.18  0.00
  YS02001882YS02001884    1.00   0.06  0.00  0.00  0.94  0.00  0.00  0.00  0.00  0.00
  YS02001884YS02001887    1.00   0.04  0.01  0.00  0.95  0.00  0.00  0.00  0.00  0.00
  YS02001890YS02001895    1.00   0.00  0.06  0.00  0.94  0.00  0.00  0.00  0.00  0.00
  YS02001895YS02001898    1.00   0.06  0.00  0.00  0.93  0.00  0.01  0.00  0.00  0.00
  YS02001898YS02001901    1.00   0.06  0.00  0.00  0.94  0.00  0.00  0.00  0.01  0.00
  YS02001901YS02001904    1.00   0.06  0.00  0.00  0.94  0.00  0.00  0.00  0.00  0.00
  YS02001904YS02001907    1.00   0.00  0.06  0.00  0.94  0.00  0.00  0.00  0.00  0.00
  YS02001887YS02001890    1.00   0.00  0.00  0.00  0.97  0.00  0.03  0.00  0.00  0.00
  YS02001652YS02001649    1.00   0.00  0.00  0.00  1.00  0.00  0.00  0.00  0.16  0.00
  YS02001655YS02001652    1.00   0.00  0.00  0.00  0.93  0.00  0.00  0.07  0.01  0.00
  YS02001658YS02001655    1.00   0.00  0.06  0.00  0.92  0.02  0.00  0.00  0.02  0.00
  YS02001661YS02001658    1.00   0.06  0.00  0.00  0.90  0.04  0.00  0.00  0.00  0.00
  YS02001664YS02001661    1.00   0.05  0.00  0.00  0.91  0.04  0.00  0.00  0.11  0.00
  YSB1154YSB6556          1.00   0.05  0.00  0.00  0.95  0.00  0.00  0.00  0.02  0.00
  YSB1174YSB1171          1.00   0.04  0.01  0.00  0.95  0.00  0.00  0.00  0.00  0.00
  YSB1171HS02004479       1.00   0.04  0.00  0.00  0.96  0.00  0.00  0.00  0.11  0.00
  HS02004881HS02006253    1.00   0.04  0.00  0.00  0.45  0.08  0.00  0.42  0.37  0.00
  YS02001793JiankangQianchi    1.00   0.00  0.00  0.00  0.93  0.07  0.00  0.00  0.07  0.00
  YS02001757CaochengTiaoxuchi    1.00   0.00  0.08  0.00  0.88  0.04  0.00  0.00  0.00  0.00
  WSF200WS02003060        1.00   0.00  0.08  0.00  0.21  0.71  0.00  0.00  0.25  0.00
  1                       1.00   0.00  0.00  0.00  0.00  1.00  0.00  0.00  0.34  0.00
  2                       1.00   0.84  0.00  0.00  0.00  0.16  0.00  0.00  0.04  0.00
  3                       1.00   0.49  0.00  0.00  0.00  0.51  0.00  0.00  0.20  0.00
  4                       1.00   1.00  0.00  0.00  0.00  0.00  0.00  0.00  0.00  0.00
  
  
  *************************
  Conduit Surcharge Summary
  *************************
  
  ----------------------------------------------------------------------------
                                                           Hours        Hours 
                         --------- Hours Full --------   Above Full   Capacity
  Conduit                Both Ends  Upstream  Dnstream   Normal Flow   Limited
  ----------------------------------------------------------------------------
  WS02006229WS02006228        1.39      1.42      1.39      2.39         1.39
  WS02006256WS02006235        4.84      4.84      7.23      2.15         0.01
  WS02006252WS02006251        0.09      0.09      0.25      0.21         0.01
  WS02006251WS02006249        0.01      0.01      0.01      0.08         0.01
  WS02006249WS02006248        0.01      0.01      0.01      1.80         0.01
  WS02006247WS02006245        0.01      0.01      0.01      3.03         0.01
  WS02006245WS02006243        0.01      0.01      0.13      0.03         0.01
  WS02006243WS02006242        0.17      0.17      0.62      0.01         0.01
  WS02006242WS02006240        0.56      0.56      0.77      0.43         0.01
  WS02006240WS02006239        0.60      0.60      0.70      0.01         0.01
  WS02006239WS02006238        0.78      0.78      0.82      0.01         0.01
  WS02006238WS02006235        0.80      0.80      0.89      0.01         0.01
  WS02006235WS02006234        0.72      0.72      0.78      4.68         0.04
  WS02006234WS02006232        0.77      0.77      1.01      0.01         0.01
  WS02006232WS02006231        0.71      0.71      1.01      0.01         0.01
  WS02006231WS02006230        0.69      0.69      0.72      4.96         0.03
  WS02006230WS02006229        1.67      2.02      1.67      5.40         1.65
  WS02006228WS02006109        1.41      1.51      1.41      3.26         1.41
  WS02006116WS02004401        0.51      0.51      0.52      0.29         0.29
  WS02006115WS02006116        0.21      0.21      0.22      0.12         0.12
  WS02006112WS02006115        0.18      0.18      1.08      0.01         0.01
  WS02006111WS02006112        0.01      0.01      2.28      0.01         0.01
  WS02006110WS02006113        0.01      0.01      1.46      0.01         0.01
  WS02006109WS02006110        0.98      0.98      1.51      0.98         0.01
  WS02004411WS02004412        0.01      0.01      0.01      0.35         0.01
  WS02004401WS02004402        0.52      0.52      0.56      0.01         0.01
  WS02004410WS02004411        0.01      0.01      0.01      0.27         0.01
  WS02004409WS02004410        0.01      0.01      0.01      0.14         0.01
  WS02004406WS02004407        0.01      0.01      0.67      0.01         0.01
  WS02004405WS02004406        0.67      0.70      0.67      1.05         0.67
  WS02004404WS02004405        0.70      0.73      0.70      5.15         0.70
  WS02004403WS02004404        0.57      0.57      0.73      0.01         0.01
  WS02004402WS02004403        0.56      0.56      0.57      0.48         0.45
  WS02003072WS02003073        0.01      0.01      0.01      1.39         0.01
  HS02004876HS02004881        0.01      0.01      0.01      0.49         0.01
  HS02004785HS02004788        0.01      0.01      0.01      0.35         0.01
  HS02004480HS02004478        0.01      0.01      0.01      0.79         0.01
  YS02001759YS02001757        6.09      6.09      6.12      0.01         0.01
  YS02001762YS02001759        6.09      6.09      6.09      0.01         0.01
  YS02001765YS02001762        6.08      6.08      6.09      0.01         0.01
  YS02001770YS02001767        6.07      6.07      6.07      0.69         0.59
  YS02001774YS02001770        6.07      6.07      6.08      0.01         0.01
  YS02001779YS02001774        6.04      6.04      6.08      0.01         0.01
  YS02001649YS02001757        6.08      6.08      6.12      0.01         0.01
  YS02001767YS02001765        6.07      6.07      6.08      0.01         0.01
  YS02006561YS02001783        1.67      1.67      2.15      0.01         0.01
  YS02001783YS02001784        2.14      2.15      2.19      2.04         1.94
  YS02001784YS02001785        2.13      2.19      2.13      2.74         2.13
  YS02001788YS02001790        2.11      2.11      4.62      0.01         0.01
  YS02001790YS02001791        4.62      4.62      4.92      1.51         1.51
  YS02001791YS02001793        4.92      4.92      5.74      0.01         0.01
  YS02001910YS02001907        1.96      1.96      2.26      0.01         0.01
  YS02001786YS02001788        2.11      2.13      2.11      2.38         2.11
  YS02001915YS02001910        1.77      1.77      1.96      0.01         0.01
  YS02001918YS02001915        1.55      1.55      1.77      0.01         0.01
  YS02001923YS02001920        1.35      1.35      1.58      0.01         0.01
  YS02001926YS02001923        0.01      0.01      0.01      0.01         0.01
  YS02001929YS02001926        0.01      0.01      0.01      0.01         0.01
  YS02001920YS02001918        1.55      1.55      1.58      0.01         0.01
  YS02001629YS02163301        6.06      6.06      6.07      0.01         0.01
  YS02001619YS02001622        6.02      6.02      6.02      0.01         0.01
  YS02001622YS02001625        6.02      6.02      6.05      0.01         0.01
  YS02001625YS02001629        6.02      6.02      6.05      0.01         0.01
  YS02163301YS02001633        6.07      6.07      6.08      0.01         0.01
  YS02163601YS02164001        6.08      6.08      6.09      0.01         0.01
  YS02164001YS02001641        6.08      6.08      6.08      0.01         0.02
  YS02001641YS02001644        6.08      6.08      6.08      2.21         2.25
  YS02001647YS02001649        6.05      6.05      6.08      0.01         0.01
  YS02006553YS02006556        2.12      2.12      2.31      0.01         0.01
  YS02006556YS02006558        2.19      2.19      2.37      0.01         0.01
  YSB6556YSB1171              0.01      0.01      0.14      0.01         0.01
  YS02001907YS02006553        2.76      2.76      2.95      0.01         0.01
  YS02006558YS02006561        1.84      2.10      1.84      2.61         1.84
  YS02001633YS02163601        6.08      6.08      6.09      0.01         0.01
  YS02001644YS02001647        6.05      6.05      6.08      0.01         0.01
  YS02001745YS02001748        0.01      0.01      5.99      0.01         0.01
  YS02001748YS02001751        6.00      6.00      6.02      0.01         0.01
  YS02001751YS02001754        6.02      6.02      6.05      0.01         0.01
  YS02001754YS02001757        6.05      6.05      6.12      0.01         0.01
  YS02001882YS02001884        1.78      1.78      1.81      0.01         0.01
  YS02001884YS02001887        1.86      1.86      1.89      0.01         0.01
  YS02001890YS02001895        1.76      1.76      1.98      0.01         0.01
  YS02001895YS02001898        1.74      1.74      1.76      0.01         0.01
  YS02001898YS02001901        1.76      1.76      1.86      0.01         0.01
  YS02001901YS02001904        1.84      1.84      1.86      0.01         0.01
  YS02001904YS02001907        1.84      1.84      2.32      0.01         0.01
  YS02001887YS02001890        1.92      1.92      1.94      0.20         0.01
  YS02001652YS02001649        6.06      6.06      6.08      0.01         0.01
  YS02001655YS02001652        6.02      6.02      6.05      0.01         0.01
  YS02001658YS02001655        5.99      5.99      6.02      0.01         0.01
  YS02001661YS02001658        0.12      0.12      5.99      0.01         0.01
  YS02001664YS02001661        0.01      0.01      1.25      0.01         0.01
  YS02001793JiankangQianchi        5.48      5.48      6.16      0.01         0.01
  YS02001757CaochengTiaoxuchi        5.63      5.63      6.12      0.01         0.01
  
  
  ***************
  Pumping Summary
  ***************
  
  ---------------------------------------------------------------------------------------------------------
                                                  Min       Avg       Max     Total     Power    % Time Off
                        Percent   Number of      Flow      Flow      Flow    Volume     Usage    Pump Curve
  Pump                 Utilized   Start-Ups       LPS       LPS       LPS  10^6 ltr     Kw-hr    Low   High
  ---------------------------------------------------------------------------------------------------------
  CC-Pump-1               25.52           6      0.00    104.23    199.96     0.720      0.52    0.0    0.0
  CC-Pump-2               51.05           7      0.00    108.95    200.00     1.500      1.32    0.0    6.4
  JK-Pump-1               40.42           7      0.00    154.15    300.00     1.264      8.11    0.0    0.0
  JK-Pump-2               29.78           6      0.00    164.63    300.00     1.048      6.64    0.0    0.0
  XR-Pump-1               68.05          11      0.00     53.23     95.00     1.055      4.68    0.0    0.0
  XR-Pump-2                4.25           1      0.00     39.97     94.95     0.057      0.26    0.0    0.0
  XR-Pump-3                4.25           1      0.00     44.04     94.98     0.057      0.26    0.0    0.0
  XR-Pump-4               29.76           6      0.00     50.58     95.00     0.456      2.03    0.0    0.0
  

  Analysis begun on:  Thu Jan  6 19:03:39 2022
  Analysis ended on:  Thu Jan  6 19:03:41 2022
  Total elapsed time: 00:00:02