
  EPA STORM WATER MANAGEMENT MODEL - VERSION 5.1 (Build 5.3.0.dev0)
  --------------------------------------------------------------

  WARNING 04: minimum elevation drop used for Conduit WS02004404WS02004405
  WARNING 03: negative offset ignored for Link YS02001904YS02001907
  
  *********************************************************
  NOTE: The summary statistics displayed in this report are
  based on results found at every computational time step,  
  not just on results from each reporting time step.
  *********************************************************
  
  ****************
  Analysis Options
  ****************
  Flow Units ............... LPS
  Process Models:
    Rainfall/Runoff ........ YES
    RDII ................... NO
    Snowmelt ............... NO
    Groundwater ............ NO
    Flow Routing ........... YES
    Ponding Allowed ........ NO
    Water Quality .......... NO
  Infiltration Method ...... HORTON
  Flow Routing Method ...... DYNWAVE
  Surcharge Method ......... EXTRAN
  Starting Date ............ 08/28/2015 08:00:00
  Ending Date .............. 08/28/2015 15:50:00
  Antecedent Dry Days ...... 8.0
  Report Time Step ......... 00:01:00
  Wet Time Step ............ 00:01:00
  Dry Time Step ............ 00:01:00
  Routing Time Step ........ 5.00 sec
  Variable Time Step ....... YES
  Maximum Trials ........... 8
  Number of Threads ........ 4
  Head Tolerance ........... 0.001500 m
  
  
  **************************        Volume         Depth
  Runoff Quantity Continuity     hectare-m            mm
  **************************     ---------       -------
  Total Precipitation ......         7.641        16.729
  Evaporation Loss .........         0.000         0.000
  Infiltration Loss ........         1.880         4.117
  Surface Runoff ...........         4.668        10.221
  Final Storage ............         1.093         2.393
  Continuity Error (%) .....        -0.013
  
  
  **************************        Volume        Volume
  Flow Routing Continuity        hectare-m      10^6 ltr
  **************************     ---------     ---------
  Dry Weather Inflow .......         0.616         6.165
  Wet Weather Inflow .......         4.667        46.671
  Groundwater Inflow .......         0.000         0.000
  RDII Inflow ..............         0.000         0.000
  External Inflow ..........         0.102         1.024
  External Outflow .........         0.879         8.786
  Flooding Loss ............         3.908        39.076
  Evaporation Loss .........         0.000         0.000
  Exfiltration Loss ........         0.000         0.000
  Initial Stored Volume ....         0.076         0.761
  Final Stored Volume ......         0.677         6.765
  Continuity Error (%) .....        -0.012
  
  
  *************************
  Highest Continuity Errors
  *************************
  Node HS02004842 (12.71%)
  Node YS02001884 (11.24%)
  Node HS02004817 (2.32%)
  Node YSB1171 (2.18%)
  Node WS02001211 (2.04%)
  
  
  ***************************
  Time-Step Critical Elements
  ***************************
  Link WS02006252WS02006251 (65.02%)
  Link 3 (14.92%)
  Link WS02006280WS02006229 (4.47%)
  Link WS02006238WS02006235 (4.12%)
  Link YS02006556YS02006558 (2.43%)
  
  
  ********************************
  Highest Flow Instability Indexes
  ********************************
  Link WS02006113WS02006111 (35)
  Link YS02163601YS02164001 (31)
  Link YS02163301YS02001633 (30)
  Link YS02001629YS02163301 (30)
  Link YS02001619YS02001622 (29)
  
  
  *************************
  Routing Time Step Summary
  *************************
  Minimum Time Step           :     0.19 sec
  Average Time Step           :     1.14 sec
  Maximum Time Step           :     5.00 sec
  Percent in Steady State     :    -0.00
  Average Iterations per Step :     3.78
  Percent Not Converging      :    14.59
  
  
  ***************************
  Subcatchment Runoff Summary
  ***************************
  
  ------------------------------------------------------------------------------------------------------------------------------
                            Total      Total      Total      Total     Imperv       Perv      Total       Total     Peak  Runoff
                           Precip      Runon       Evap      Infil     Runoff     Runoff     Runoff      Runoff   Runoff   Coeff
  Subcatchment                 mm         mm         mm         mm         mm         mm         mm    10^6 ltr      LPS
  ------------------------------------------------------------------------------------------------------------------------------
  sub0                      16.73       0.00       0.00       0.97      14.29       0.20      14.50        0.01     3.66   0.867
  sub1                      16.73       0.00       0.00       1.58      13.63       0.26      13.89        0.09    24.51   0.830
  sub2                      16.73       0.00       0.00       5.80       9.63       0.39      10.02        0.09    22.91   0.599
  sub3                      16.73       0.00       0.00       5.88       9.59       0.31       9.90        0.22    50.49   0.592
  sub4                      16.73       0.00       0.00       1.65      13.47       0.19      13.66        0.28    60.01   0.817
  sub5                      16.73       0.00       0.00       0.99      14.24       0.18      14.42        0.16    43.61   0.862
  sub7                      16.73       0.00       0.00       1.26      13.97       0.24      14.21        0.05    13.82   0.849
  sub8                      16.73       0.00       0.00       1.27      13.96       0.23      14.19        0.09    25.44   0.848
  sub9                      16.73       0.00       0.00       1.27      13.96       0.23      14.19        0.07    19.02   0.848
  sub10                     16.73       0.00       0.00       1.13      14.10       0.21      14.30        0.16    42.73   0.855
  sub11                     16.73       0.00       0.00       1.12      14.11       0.21      14.33        0.17    47.25   0.857
  sub12                     16.73       0.00       0.00       1.83      13.37       0.35      13.71        0.12    35.87   0.820
  sub14                     16.73       0.00       0.00       1.27      13.95       0.23      14.19        0.14    37.43   0.848
  sub15                     16.73       0.00       0.00       4.53      10.73       0.49      11.22        0.19    51.47   0.671
  sub16                     16.73       0.00       0.00       4.88      10.29       0.64      10.93        0.11    32.57   0.653
  sub17                     16.73       0.00       0.00       4.74      10.44       0.61      11.05        0.09    26.81   0.661
  sub22                     16.73       0.00       0.00       6.60       8.75       0.59       9.34        0.59   160.16   0.558
  sub23                     16.73       0.00       0.00       5.59       9.67       0.60      10.27        0.49   134.74   0.614
  sub60                     16.73       0.00       0.00       1.94      11.65       0.06      11.71        3.55   386.89   0.700
  sub61                     16.73       0.00       0.00       2.75      11.65       0.09      11.73        3.62   476.87   0.701
  sub62                     16.73       0.00       0.00       1.26      12.72       0.07      12.79        3.93   491.27   0.765
  sub63                     16.73       0.00       0.00       4.75      10.14       0.10      10.23        3.10   437.54   0.612
  sub64                     16.73       0.00       0.00       2.45      11.19       0.06      11.26        3.42   367.58   0.673
  sub65                     16.73       0.00       0.00       2.11      11.40       0.06      11.46        3.52   372.98   0.685
  sub66                     16.73       0.00       0.00       4.79       9.55       0.06       9.61        2.95   336.52   0.575
  sub67                     16.73       0.00       0.00       1.24      13.25       0.09      13.35        4.12   605.48   0.798
  sub68                     16.73       0.00       0.00       2.25      12.20       0.10      12.30        3.78   521.64   0.735
  sub69                     16.73       0.00       0.00       2.37      12.50       0.14      12.64        2.95   482.20   0.755
  sub70                     16.73      12.90       0.00       8.98      17.16       1.09      18.25        4.18   460.88   0.616
  sub71                     16.73       0.00       0.00       1.27      12.46       0.07      12.53        2.96   345.19   0.749
  sub72                     16.73       0.00       0.00       1.14      10.39       0.03      10.43        2.12   185.81   0.623
  sub73                     16.73      17.77       0.00       9.78      19.72       1.38      21.10        4.96   482.28   0.612
  sub74                     16.73       0.00       0.00      12.48       3.71       0.07       3.78        1.51   261.10   0.226
  
  
  ******************
  Node Depth Summary
  ******************
  
  ---------------------------------------------------------------------------------
                                 Average  Maximum  Maximum  Time of Max    Reported
                                   Depth    Depth      HGL   Occurrence   Max Depth
  Node                 Type       Meters   Meters   Meters  days hr:min      Meters
  ---------------------------------------------------------------------------------
  WS02001211           JUNCTION     0.46     0.67     5.51     0  02:11        0.67
  WS02001212           JUNCTION     0.23     0.42     5.48     0  02:12        0.42
  WS02001213           JUNCTION     0.46     0.71     5.47     0  02:12        0.71
  WS02003069           JUNCTION     0.31     0.59     5.17     0  02:13        0.59
  WS02003072           JUNCTION     0.37     0.64     5.02     0  02:14        0.64
  WS02003073           JUNCTION     0.21     0.40     4.46     0  02:15        0.40
  WS02003060           JUNCTION     0.28     0.52     5.45     0  02:13        0.52
  WS02003066           JUNCTION     0.20     0.35     5.90     0  02:01        0.35
  WS02003059           JUNCTION     0.53     0.77     5.46     0  02:12        0.77
  WS02003067           JUNCTION     0.51     0.77     6.09     0  02:01        0.77
  WS02004401           JUNCTION     0.61     1.07     7.07     0  01:59        1.07
  WS02004402           JUNCTION     0.64     1.08     7.04     0  01:58        1.08
  WS02004403           JUNCTION     0.66     1.07     7.00     0  01:59        1.07
  WS02004404           JUNCTION     0.73     1.13     6.98     0  01:58        1.13
  WS02004406           JUNCTION     0.74     1.08     6.91     0  01:59        1.08
  WS02004409           JUNCTION     0.41     0.82     6.59     0  02:00        0.82
  WS02004410           JUNCTION     0.43     0.83     6.55     0  02:00        0.83
  WS02004411           JUNCTION     0.45     0.82     6.50     0  02:00        0.82
  WS02004412           JUNCTION     0.47     0.81     6.45     0  02:01        0.81
  WS02004413           JUNCTION     0.63     0.96     6.43     0  02:01        0.96
  WS02004405           JUNCTION     0.73     1.11     6.96     0  01:58        1.11
  WS02006109           JUNCTION     0.68     1.20     7.82     0  01:57        1.19
  WS02006110           JUNCTION     0.68     1.06     7.65     0  01:57        1.06
  WS02006111           JUNCTION     0.20     0.53     7.23     0  01:58        0.53
  WS02006112           JUNCTION     0.77     1.33     7.22     0  01:59        1.33
  WS02006113           JUNCTION     0.29     0.56     7.45     0  01:58        0.56
  WS02006115           JUNCTION     0.50     1.01     7.15     0  01:59        1.01
  WS02006116           JUNCTION     0.58     1.08     7.12     0  01:59        1.08
  WS02006230           JUNCTION     0.63     1.28     8.03     0  01:58        1.28
  WS02006231           JUNCTION     0.40     0.92     8.05     0  02:04        0.92
  WS02006232           JUNCTION     0.52     1.02     8.06     0  02:07        1.01
  WS02006234           JUNCTION     0.42     0.91     8.07     0  02:07        0.90
  WS02006235           JUNCTION     0.44     0.92     8.09     0  02:10        0.91
  WS02006238           JUNCTION     0.47     0.95     8.09     0  02:10        0.94
  WS02006240           JUNCTION     0.37     0.84     8.13     0  02:10        0.84
  WS02006242           JUNCTION     0.43     0.89     8.16     0  02:10        0.89
  WS02006243           JUNCTION     0.31     0.78     8.20     0  02:10        0.77
  WS02006245           JUNCTION     0.31     0.74     8.22     0  02:10        0.74
  WS02006247           JUNCTION     0.33     0.74     8.24     0  02:10        0.74
  WS02006248           JUNCTION     0.28     0.67     8.26     0  02:10        0.67
  WS02006249           JUNCTION     0.32     0.68     8.27     0  02:10        0.67
  WS02006239           JUNCTION     0.42     0.90     8.11     0  02:10        0.90
  WS02006251           JUNCTION     0.30     0.75     8.42     0  02:10        0.75
  WS02006252           JUNCTION     0.25     0.59     8.83     0  02:09        0.58
  WS02006253           JUNCTION     0.33     0.78     8.43     0  02:10        0.78
  WS02006256           JUNCTION     0.78     1.12     8.06     0  03:30        1.12
  WS02004138           JUNCTION     0.06     0.17     7.41     0  05:40        0.17
  WS02004407           JUNCTION     0.19     0.36     6.67     0  01:59        0.36
  WS02006228           JUNCTION     0.68     1.30     7.95     0  01:57        1.30
  WS02006229           JUNCTION     0.66     1.33     8.02     0  01:57        1.33
  WS02006280           JUNCTION     0.08     0.25     8.52     0  01:55        0.25
  WS02006284           JUNCTION     0.39     0.64     9.04     0  01:55        0.64
  WS02006287           JUNCTION     0.12     0.38     9.33     0  01:54        0.38
  WSF200               JUNCTION     0.18     0.37     5.60     0  02:13        0.37
  HS02004901           JUNCTION     0.14     0.36    10.18     0  01:52        0.36
  HS02004881           JUNCTION     0.01     0.05     9.08     0  01:54        0.05
  HS02004876           JUNCTION     0.05     0.16     9.19     0  01:55        0.16
  HS02004870           JUNCTION     0.02     0.09     9.38     0  01:55        0.09
  HS02004862           JUNCTION     0.03     0.11     9.49     0  01:55        0.11
  HS02004856           JUNCTION     0.08     0.15     9.58     0  01:55        0.15
  HS02004852           JUNCTION     0.02     0.07     9.59     0  01:55        0.07
  HS02004848           JUNCTION     0.02     0.07     9.67     0  01:55        0.07
  HS02004842           JUNCTION     0.34     0.40     9.67     0  01:55        0.40
  HS02004837           JUNCTION     0.04     0.09     9.67     0  01:55        0.09
  HS02004830           JUNCTION     0.05     0.10     9.57     0  01:56        0.10
  HS02004824           JUNCTION     0.03     0.12     9.53     0  01:55        0.12
  HS02004817           JUNCTION     0.46     0.69     9.53     0  01:55        0.69
  HS02004807           JUNCTION     0.15     0.36     9.53     0  01:55        0.36
  HS02004802           JUNCTION     0.18     0.39     9.52     0  01:55        0.39
  HS02004799           JUNCTION     0.15     0.45     9.66     0  01:53        0.45
  HS02004792           JUNCTION     0.05     0.20     9.73     0  01:52        0.20
  HS02004788           JUNCTION     0.04     0.15    10.05     0  01:53        0.15
  HS02004785           JUNCTION     0.06     0.23    10.14     0  01:52        0.23
  HS02004777           JUNCTION     0.17     0.37    10.17     0  01:52        0.37
  HS02004770           JUNCTION     0.14     0.35    10.18     0  01:52        0.35
  HS02004480           JUNCTION     0.11     0.37     9.61     0  01:53        0.37
  HS02004479           JUNCTION     0.14     0.41     9.61     0  01:53        0.41
  HS02004478           JUNCTION     0.08     0.27     9.50     0  01:54        0.27
  YS02001745           JUNCTION     0.76     0.95     8.47     0  02:50        0.95
  YS02001748           JUNCTION     1.16     1.39     8.46     0  02:50        1.39
  YS02001751           JUNCTION     1.34     1.58     8.46     0  02:51        1.58
  YS02001754           JUNCTION     1.59     1.84     8.45     0  02:50        1.84
  YS02001762           JUNCTION     1.78     2.05     8.45     0  02:38        2.04
  YS02001765           JUNCTION     1.74     1.99     8.44     0  02:48        1.99
  YS02001767           JUNCTION     1.70     1.94     8.43     0  02:48        1.94
  YS02001770           JUNCTION     1.70     1.93     8.42     0  02:48        1.93
  YS02001774           JUNCTION     1.76     1.98     8.41     0  02:38        1.98
  YS02001779           JUNCTION     1.51     1.68     8.37     0  01:51        1.68
  YS02001882           JUNCTION     0.72     1.66     8.38     0  01:55        1.62
  YS02001884           JUNCTION     0.82     1.75     8.37     0  01:55        1.73
  YS02001759           JUNCTION     1.82     2.08     8.45     0  02:38        2.08
  YS02001887           JUNCTION     0.89     1.81     8.35     0  01:55        1.81
  YS02001890           JUNCTION     0.92     1.81     8.32     0  01:55        1.81
  YS02001898           JUNCTION     0.69     1.58     8.31     0  01:55        1.56
  YS02001901           JUNCTION     0.81     1.69     8.30     0  01:56        1.67
  YS02001904           JUNCTION     0.78     1.65     8.28     0  01:56        1.63
  YS02001907           JUNCTION     1.11     1.96     8.25     0  01:55        1.96
  YS02001910           JUNCTION     0.90     1.86     8.37     0  01:56        1.78
  YS02001915           JUNCTION     0.71     1.73     8.45     0  01:56        1.61
  YS02001918           JUNCTION     0.45     1.51     8.57     0  01:56        1.32
  YS02001619           JUNCTION     1.30     1.61     8.54     0  01:47        1.47
  YS02001629           JUNCTION     1.64     1.85     8.40     0  01:47        1.84
  YS02001641           JUNCTION     1.74     1.94     8.37     0  01:55        1.93
  YS02001644           JUNCTION     1.74     1.92     8.35     0  01:51        1.92
  YS02001652           JUNCTION     1.60     2.16     8.76     0  02:06        1.94
  YS02001655           JUNCTION     1.36     2.20     9.05     0  02:14        1.92
  YS02001920           JUNCTION     0.55     1.63     8.64     0  01:56        1.41
  YS02001923           JUNCTION     0.37     1.46     8.72     0  01:56        1.19
  YS02001926           JUNCTION     0.38     1.76     9.20     0  01:56        1.04
  YS02001929           JUNCTION     0.24     0.89     8.59     0  01:57        0.84
  YS02001658           JUNCTION     1.10     2.23     9.38     0  02:12        1.93
  YS02001661           JUNCTION     0.87     2.46     9.86     0  02:08        1.88
  YS02001664           JUNCTION     0.39     0.56     8.49     0  04:36        0.56
  YS02001622           JUNCTION     1.32     1.62     8.52     0  01:47        1.53
  YS02001633           JUNCTION     1.73     1.95     8.40     0  01:55        1.94
  YS02001649           JUNCTION     1.79     2.05     8.44     0  02:04        2.05
  YS02001757           JUNCTION     1.91     2.18     8.45     0  02:48        2.18
  YS02001895           JUNCTION     0.69     1.57     8.32     0  01:55        1.56
  YS02001625           JUNCTION     1.60     1.78     8.38     0  01:48        1.78
  YS02163301           JUNCTION     1.67     1.89     8.41     0  01:47        1.88
  YS02163601           JUNCTION     1.78     1.99     8.39     0  01:55        1.98
  YS02164001           JUNCTION     1.72     1.92     8.38     0  01:55        1.91
  YS02001647           JUNCTION     1.58     1.80     8.41     0  02:12        1.79
  YSB1154              JUNCTION     0.28     0.56     9.62     0  01:53        0.56
  YSB6556              JUNCTION     0.17     0.44     9.61     0  01:53        0.44
  YSB1174              JUNCTION     0.23     0.50     9.61     0  01:53        0.50
  YSB1171              JUNCTION     0.43     0.71     9.61     0  01:53        0.71
  YS02006553           JUNCTION     1.11     1.97     8.25     0  02:02        1.96
  YS02006561           JUNCTION     0.45     1.14     7.80     0  01:55        1.08
  YS02006556           JUNCTION     1.07     1.94     8.25     0  01:55        1.93
  YS02006558           JUNCTION     1.11     1.97     8.24     0  01:55        1.97
  YS02001783           JUNCTION     0.77     2.40     8.54     0  01:51        1.47
  YS02001784           JUNCTION     0.79     2.29     8.36     0  01:51        1.41
  YS02001786           JUNCTION     0.75     2.23     8.26     0  01:51        1.26
  YS02001788           JUNCTION     0.72     2.28     8.26     0  01:51        1.13
  YS02001790           JUNCTION     0.96     1.96     7.60     0  01:51        1.29
  YS02001791           JUNCTION     1.04     1.72     7.19     0  01:50        1.27
  YS02001793           JUNCTION     1.56     2.02     6.85     0  01:51        1.80
  WS02004139           JUNCTION     0.40     0.60     5.51     0  02:12        0.60
  WSC                  OUTFALL      0.21     0.40     1.07     0  02:15        0.40
  3                    OUTFALL      0.03     0.12     6.12     0  03:30        0.12
  4                    OUTFALL      0.01     0.18     7.18     0  02:10        0.17
  5                    OUTFALL      0.00     0.00     5.00     0  00:00        0.00
  JK-storage           STORAGE      5.25     5.80     6.60     0  01:51        5.80
  CC-storage           STORAGE      1.15     1.45     8.45     0  02:48        1.45
  XR-storage           STORAGE      7.67     7.72     5.72     0  00:36        7.72
  
  
  *******************
  Node Inflow Summary
  *******************
  
  -------------------------------------------------------------------------------------------------
                                  Maximum  Maximum                  Lateral       Total        Flow
                                  Lateral    Total  Time of Max      Inflow      Inflow     Balance
                                   Inflow   Inflow   Occurrence      Volume      Volume       Error
  Node                 Type           LPS      LPS  days hr:min    10^6 ltr    10^6 ltr     Percent
  -------------------------------------------------------------------------------------------------
  WS02001211           JUNCTION      7.35   267.78     0  05:40       0.207        1.65       2.083
  WS02001212           JUNCTION      0.00   250.98     0  05:41           0        1.63       0.974
  WS02001213           JUNCTION      0.00   247.67     0  05:42           0        1.64       1.149
  WS02003069           JUNCTION      0.32   951.16     0  02:13     0.00902        7.96       0.245
  WS02003072           JUNCTION      0.00   950.75     0  02:14           0        7.94       0.318
  WS02003073           JUNCTION      1.82   952.47     0  02:14      0.0514        7.96       0.321
  WS02003060           JUNCTION     16.53   950.69     0  02:13       0.466        8.03       0.240
  WS02003066           JUNCTION      0.00   764.21     0  02:01           0           6       0.052
  WS02003059           JUNCTION      0.00   242.13     0  05:42           0        1.65       2.070
  WS02003067           JUNCTION      0.00   764.17     0  02:01           0           6       0.118
  WS02004401           JUNCTION      0.00   764.96     0  01:59           0        6.19       0.294
  WS02004402           JUNCTION      0.00   764.96     0  01:59           0        6.17       0.282
  WS02004403           JUNCTION      0.00   764.98     0  01:59           0        6.16       0.260
  WS02004404           JUNCTION      0.16   765.17     0  01:59     0.00457        6.14       0.201
  WS02004406           JUNCTION      0.00   765.22     0  01:59           0        6.11       0.491
  WS02004409           JUNCTION      0.00   765.17     0  01:59           0        6.08       0.185
  WS02004410           JUNCTION      0.00   764.58     0  01:59           0        6.07       0.212
  WS02004411           JUNCTION      0.00   764.28     0  02:00           0        6.05       0.222
  WS02004412           JUNCTION      0.00   764.16     0  02:00           0        6.04       0.249
  WS02004413           JUNCTION      0.00   764.15     0  02:01           0        6.03       0.388
  WS02004405           JUNCTION      0.04   765.21     0  01:59     0.00107        6.13       0.301
  WS02006109           JUNCTION      1.23   742.44     0  01:58      0.0347         6.2       0.248
  WS02006110           JUNCTION      0.00   742.21     0  01:58           0        6.18       0.301
  WS02006111           JUNCTION      0.00   741.56     0  01:58           0        6.16       0.060
  WS02006112           JUNCTION     26.81   764.98     0  01:58      0.0948        6.25       0.424
  WS02006113           JUNCTION      0.00   742.23     0  01:58           0        6.16       0.126
  WS02006115           JUNCTION      0.00   765.01     0  01:59           0        6.22       0.270
  WS02006116           JUNCTION      0.00   764.92     0  01:59           0        6.21       0.234
  WS02006230           JUNCTION     10.28   374.24     0  03:26        0.29        3.51       0.339
  WS02006231           JUNCTION      0.00   363.27     0  03:26           0        3.22       0.231
  WS02006232           JUNCTION      0.00   363.19     0  03:26           0        3.24       0.433
  WS02006234           JUNCTION      0.00   363.18     0  03:22           0        3.24       0.101
  WS02006235           JUNCTION      0.00   363.49     0  03:22           0        3.36       0.379
  WS02006238           JUNCTION      0.00   329.79     0  03:20           0        2.46       0.052
  WS02006240           JUNCTION      0.00   328.58     0  03:20           0        2.44       0.482
  WS02006242           JUNCTION      0.00   328.33     0  03:20           0        2.45       0.616
  WS02006243           JUNCTION      0.00   327.41     0  03:21           0        2.44       0.069
  WS02006245           JUNCTION      0.00   326.24     0  03:21           0        2.45       0.675
  WS02006247           JUNCTION      0.00   324.17     0  03:21           0        2.46       0.306
  WS02006248           JUNCTION      0.00   321.41     0  03:21           0        2.46       0.015
  WS02006249           JUNCTION      0.00   509.92     0  02:10           0         2.7       0.594
  WS02006239           JUNCTION      0.00   329.14     0  03:20           0        2.45      -0.043
  WS02006251           JUNCTION      0.08   511.14     0  02:10     0.00217        2.73       0.280
  WS02006252           JUNCTION      0.00   399.91     0  03:20           0        2.17       0.021
  WS02006253           JUNCTION      3.66   142.88     0  01:54      0.0117       0.562       0.652
  WS02006256           JUNCTION      0.00   299.99     0  03:30           0        1.55       0.138
  WS02004138           JUNCTION      0.00   284.57     0  05:40           0        1.42       0.091
  WS02004407           JUNCTION      0.00   765.23     0  01:59           0        6.08       0.090
  WS02006228           JUNCTION      0.00   741.09     0  01:58           0        6.18       0.207
  WS02006229           JUNCTION      0.00   741.03     0  01:57           0        6.19       0.239
  WS02006280           JUNCTION      0.00   656.08     0  01:55           0         2.7       0.002
  WS02006284           JUNCTION      0.10   655.99     0  01:55      0.0027         2.7       0.040
  WS02006287           JUNCTION      0.00   655.84     0  01:54           0         2.7       0.027
  WSF200               JUNCTION      0.00   764.23     0  02:01           0        5.99       0.040
  HS02004901           JUNCTION     32.57    32.57     0  01:50       0.114       0.115       1.559
  HS02004881           JUNCTION     13.82   139.59     0  01:54      0.0479       0.529       0.059
  HS02004876           JUNCTION     24.51   126.37     0  01:54      0.0923       0.482       0.114
  HS02004870           JUNCTION     25.44   102.13     0  01:54      0.0907        0.39       0.028
  HS02004862           JUNCTION     23.11    77.53     0  01:55       0.099       0.299       0.057
  HS02004856           JUNCTION     19.02    54.51     0  01:55      0.0682       0.202       0.722
  HS02004852           JUNCTION      0.00    36.10     0  01:55           0       0.134       0.042
  HS02004848           JUNCTION     50.49    50.49     0  01:57       0.223       0.223       0.021
  HS02004842           JUNCTION      0.00    15.55     0  02:06           0       0.102      14.564
  HS02004837           JUNCTION     49.08    62.50     0  01:55       0.337       0.426       0.184
  HS02004830           JUNCTION      0.15    62.61     0  01:55     0.00423       0.416       0.297
  HS02004824           JUNCTION     60.06   122.21     0  01:58       0.286       0.702       0.077
  HS02004817           JUNCTION      0.60   124.03     0  01:59      0.0169       0.718       2.378
  HS02004807           JUNCTION     47.25   168.29     0  01:57       0.166       0.868       0.499
  HS02004802           JUNCTION      0.00   169.25     0  01:58           0       0.865       0.460
  HS02004799           JUNCTION     37.43   414.55     0  01:52       0.135        1.57       0.167
  HS02004792           JUNCTION    160.44   377.32     0  01:52       0.598        1.44       0.028
  HS02004788           JUNCTION     53.14   218.55     0  01:52        0.24       0.839       0.045
  HS02004785           JUNCTION      0.15   165.60     0  01:52     0.00423       0.601       0.082
  HS02004777           JUNCTION      0.03   165.80     0  01:51    0.000846       0.601       0.872
  HS02004770           JUNCTION    134.74   166.65     0  01:51        0.49       0.602       0.515
  HS02004480           JUNCTION      0.00   492.24     0  01:53           0        1.85       0.065
  HS02004479           JUNCTION      0.00    78.01     0  01:53           0       0.292       0.252
  HS02004478           JUNCTION      0.00   655.79     0  01:54           0         2.7       0.013
  YS02001745           JUNCTION    386.89   386.89     0  02:16        3.55        3.55       0.321
  YS02001748           JUNCTION      0.04   397.73     0  02:16     0.00127        3.54       0.646
  YS02001751           JUNCTION      0.01   396.60     0  02:16     0.00031        3.52       0.678
  YS02001754           JUNCTION      0.26   396.82     0  02:16     0.00733         3.5       0.706
  YS02001762           JUNCTION      0.00   432.26     0  02:03           0        2.22       0.954
  YS02001765           JUNCTION      0.00   432.06     0  02:03           0        2.22       1.101
  YS02001767           JUNCTION      0.54   432.07     0  02:03      0.0151        2.25       1.604
  YS02001770           JUNCTION    491.42   715.40     0  02:52        3.94        4.79       0.661
  YS02001774           JUNCTION      0.00   715.46     0  02:52           0        3.39       0.735
  YS02001779           JUNCTION      0.01   715.49     0  02:52    0.000141        3.36       0.463
  YS02001882           JUNCTION      0.00    91.83     0  01:53           0        0.02      13.473
  YS02001884           JUNCTION      0.00   104.14     0  01:52           0      0.0552      12.664
  YS02001759           JUNCTION    476.91   861.10     0  02:04        3.62        4.96       0.464
  YS02001887           JUNCTION    605.93   606.11     0  02:15        4.13        4.16       0.208
  YS02001890           JUNCTION      0.00   606.17     0  02:15           0        4.11       0.227
  YS02001898           JUNCTION      0.00   517.83     0  02:25           0           4       0.073
  YS02001901           JUNCTION      0.00   517.84     0  02:25           0           4       0.182
  YS02001904           JUNCTION      0.00   517.87     0  02:29           0        3.99       0.163
  YS02001907           JUNCTION      0.00  1108.99     0  01:57           0        9.13       0.262
  YS02001910           JUNCTION      0.00   600.04     0  01:57           0        5.15       0.228
  YS02001915           JUNCTION    345.21   600.17     0  01:57        2.96        5.21       0.124
  YS02001918           JUNCTION      0.00   333.58     0  01:57           0        2.28       0.060
  YS02001619           JUNCTION    336.52   336.52     0  02:16        2.95        2.95       0.415
  YS02001629           JUNCTION      0.00   232.43     0  01:47           0        1.45       2.009
  YS02001641           JUNCTION      0.00   425.65     0  01:51           0        4.86       0.437
  YS02001644           JUNCTION    367.62  1536.06     0  02:51        3.42        13.7       0.193
  YS02001652           JUNCTION      0.00   476.18     0  02:16           0        3.05       0.769
  YS02001655           JUNCTION      0.15   475.99     0  02:16     0.00434        3.07       0.827
  YS02001920           JUNCTION      2.87   333.67     0  01:57      0.0809        2.26       0.128
  YS02001923           JUNCTION      0.04   291.73     0  01:56     0.00106        2.16       0.042
  YS02001926           JUNCTION      0.05   308.93     0  01:55     0.00147        2.14       0.151
  YS02001929           JUNCTION    185.81   200.07     0  01:56        2.12        2.13       0.030
  YS02001658           JUNCTION      0.00   508.07     0  02:14           0        3.09       0.786
  YS02001661           JUNCTION      0.00   768.93     0  02:04           0        3.34      -0.015
  YS02001664           JUNCTION    437.54   437.54     0  02:16         3.1        3.35       0.184
  YS02001622           JUNCTION      0.00   336.72     0  02:16           0        2.94       1.088
  YS02001633           JUNCTION    373.18   425.88     0  01:51        3.53        4.93       0.651
  YS02001649           JUNCTION      0.00  1006.06     0  01:58           0        7.35       0.501
  YS02001757           JUNCTION      0.00  2127.90     0  02:02           0        9.61       0.966
  YS02001895           JUNCTION      0.00   517.78     0  02:25           0           4       0.134
  YS02001625           JUNCTION      0.00   336.54     0  02:15           0        2.91       1.361
  YS02163301           JUNCTION      0.00   229.11     0  01:48           0        1.45       1.682
  YS02163601           JUNCTION      0.11   425.69     0  01:51      0.0031        4.87       0.615
  YS02164001           JUNCTION      0.00   425.63     0  01:51           0        4.85       0.410
  YS02001647           JUNCTION      0.00   813.12     0  02:51           0        6.49       0.438
  YSB1154              JUNCTION     43.61    43.61     0  01:53       0.163       0.164       0.888
  YSB6556              JUNCTION      0.00    43.63     0  01:53           0       0.165       0.764
  YSB1174              JUNCTION     35.87    35.87     0  01:50        0.12        0.12       1.078
  YSB1171              JUNCTION      0.00    78.03     0  01:53           0       0.291       2.227
  YS02006553           JUNCTION      0.00   682.54     0  03:21           0        7.11       0.219
  YS02006561           JUNCTION      0.00   968.35     0  02:15           0        10.9       0.004
  YS02006556           JUNCTION      0.00   682.70     0  03:21           0        7.11       0.158
  YS02006558           JUNCTION    522.52   968.75     0  02:11        3.81        10.9       0.050
  YS02001783           JUNCTION      0.00   968.35     0  02:10           0        10.9       0.064
  YS02001784           JUNCTION      1.06   969.39     0  02:15      0.0299        10.9       0.099
  YS02001786           JUNCTION      0.06   969.38     0  02:15     0.00159        10.9       0.124
  YS02001788           JUNCTION      0.07   969.52     0  02:15       0.002        10.9       0.125
  YS02001790           JUNCTION      0.15   969.62     0  02:15     0.00437        10.8       0.148
  YS02001791           JUNCTION      0.00   969.69     0  02:14           0        10.8       0.128
  YS02001793           JUNCTION      0.00   970.00     0  02:09           0        10.8       0.152
  WS02004139           JUNCTION      0.32   283.33     0  05:40     0.00905        1.45       1.958
  WSC                  OUTFALL       0.00   952.44     0  02:15           0        7.94       0.000
  3                    OUTFALL       0.00   214.29     0  03:30           0       0.627       0.000
  4                    OUTFALL       0.00   271.66     0  02:10           0       0.222       0.000
  5                    OUTFALL       0.00     0.00     0  00:00           0           0       0.000 ltr
  JK-storage           STORAGE       0.00   993.51     0  01:49           0          11       0.173
  CC-storage           STORAGE       0.00  2128.01     0  02:02           0        6.19       1.050
  XR-storage           STORAGE     844.69   844.69     0  03:01        12.1        12.7       0.003
  
  
  **********************
  Node Surcharge Summary
  **********************
  
  Surcharging occurs when water rises above the top of the highest conduit.
  ---------------------------------------------------------------------
                                               Max. Height   Min. Depth
                                   Hours       Above Crown    Below Rim
  Node                 Type      Surcharged         Meters       Meters
  ---------------------------------------------------------------------
  WS02004401           JUNCTION        0.47          0.070        1.590
  WS02004402           JUNCTION        0.52          0.077        1.663
  WS02004403           JUNCTION        0.52          0.070        1.960
  WS02004404           JUNCTION        0.67          0.126        2.654
  WS02004406           JUNCTION        0.62          0.083        2.367
  WS02004405           JUNCTION        0.65          0.109        2.691
  WS02006109           JUNCTION        1.51          0.378        1.442
  WS02006110           JUNCTION        0.77          0.155        1.695
  WS02006112           JUNCTION        0.88          0.333        1.347
  WS02006115           JUNCTION        0.06          0.004        2.246
  WS02006116           JUNCTION        0.26          0.015        2.275
  WS02006230           JUNCTION        0.63          0.201        1.369
  WS02006231           JUNCTION        0.65          0.212        1.318
  WS02006232           JUNCTION        1.22          0.318        1.162
  WS02006234           JUNCTION        0.64          0.191        1.049
  WS02006235           JUNCTION        0.81          0.213        1.077
  WS02006238           JUNCTION        0.92          0.229        1.201
  WS02006240           JUNCTION        0.51          0.129        1.261
  WS02006242           JUNCTION        0.68          0.164        0.656
  WS02006243           JUNCTION        0.24          0.065        0.705
  WS02006245           JUNCTION        0.11          0.028        0.822
  WS02006247           JUNCTION        0.11          0.032        0.728
  WS02006239           JUNCTION        0.58          0.158        1.132
  WS02006252           JUNCTION        0.45          0.191        0.909
  WS02006228           JUNCTION        1.49          0.470        1.730
  YS02001748           JUNCTION        5.99          0.307        0.883
  YS02001751           JUNCTION        6.02          0.579        0.621
  YS02001754           JUNCTION        6.04          0.794        0.356
  YS02001762           JUNCTION        6.09          1.046        0.104
  YS02001765           JUNCTION        6.08          0.989        0.111
  YS02001767           JUNCTION        6.07          0.944        0.086
  YS02001770           JUNCTION        6.07          0.899        0.021
  YS02001774           JUNCTION        6.08          0.983        0.067
  YS02001779           JUNCTION        6.04          0.680        0.000
  YS02001882           JUNCTION        1.77          0.659        0.171
  YS02001884           JUNCTION        1.80          0.688        0.182
  YS02001759           JUNCTION        6.09          1.085        0.125
  YS02001887           JUNCTION        1.87          0.763        0.187
  YS02001890           JUNCTION        1.90          0.760        0.000
  YS02001898           JUNCTION        1.74          0.548        0.192
  YS02001901           JUNCTION        1.85          0.688        0.182
  YS02001904           JUNCTION        1.82          0.648        0.202
  YS02001907           JUNCTION        2.28          0.950        0.000
  YS02001910           JUNCTION        1.94          0.860        0.240
  YS02001915           JUNCTION        1.77          0.730        0.270
  YS02001918           JUNCTION        1.55          0.506        0.304
  YS02001619           JUNCTION        6.02          0.610        0.000
  YS02001629           JUNCTION        6.02          0.470        0.000
  YS02001641           JUNCTION        6.08          0.938        0.162
  YS02001644           JUNCTION        6.08          0.920        0.000
  YS02001652           JUNCTION        6.05          1.130        0.000
  YS02001655           JUNCTION        6.02          1.200        0.000
  YS02001920           JUNCTION        1.58          0.629        0.511
  YS02001923           JUNCTION        0.01          0.248        0.572
  YS02001926           JUNCTION        0.01          0.759        0.141
  YS02001658           JUNCTION        5.99          1.233        0.067
  YS02001661           JUNCTION        0.13          1.390        0.000
  YS02001622           JUNCTION        6.02          0.620        0.000
  YS02001633           JUNCTION        6.08          0.929        0.131
  YS02001649           JUNCTION        6.08          1.050        0.000
  YS02001757           JUNCTION        6.12          1.185        0.025
  YS02001895           JUNCTION        1.75          0.574        0.176
  YS02001625           JUNCTION        6.05          0.780        0.000
  YS02163301           JUNCTION        6.07          0.892        0.138
  YS02163601           JUNCTION        6.09          0.989        0.091
  YS02164001           JUNCTION        6.08          0.921        0.179
  YS02001647           JUNCTION        6.05          0.805        0.095
  YS02006553           JUNCTION        2.36          0.968        0.222
  YS02006561           JUNCTION        1.66          0.338        0.812
  YS02006556           JUNCTION        2.12          0.898        0.452
  YS02006558           JUNCTION        2.09          0.874        0.526
  YS02001783           JUNCTION        2.14          1.600        0.000
  YS02001784           JUNCTION        2.19          1.490        0.000
  YS02001786           JUNCTION        2.15          1.430        0.000
  YS02001788           JUNCTION        2.13          1.480        0.000
  YS02001790           JUNCTION        5.60          1.157        0.000
  YS02001791           JUNCTION        5.88          0.916        1.004
  YS02001793           JUNCTION        6.00          1.022        1.578
  
  
  *********************
  Node Flooding Summary
  *********************
  
  Flooding refers to all water that overflows a node, whether it ponds or not.
  --------------------------------------------------------------------------
                                                             Total   Maximum
                                 Maximum   Time of Max       Flood    Ponded
                        Hours       Rate    Occurrence      Volume     Depth
  Node                 Flooded       LPS   days hr:min    10^6 ltr    Meters
  --------------------------------------------------------------------------
  YS02001779              3.71    715.48      0  02:52       3.341     0.000
  YS02001890              0.58     89.86      0  02:15       0.101     0.000
  YS02001907              1.41    583.90      0  02:14       2.016     0.000
  YS02001619              0.01     62.33      0  01:48       0.000     0.000
  YS02001629              0.01    141.09      0  01:47       0.000     0.000
  YS02001644              5.67   1536.05      0  02:51      12.648     0.000
  YS02001652              0.01      8.39      0  02:06       0.000     0.000
  YS02001655              0.01     15.08      0  02:14       0.000     0.000
  YS02001661              0.01    131.89      0  02:12       0.000     0.000
  YS02001622              0.01     79.05      0  01:47       0.000     0.000
  YS02001649              0.03     35.47      0  02:12       0.002     0.000
  YS02001625              1.99    326.00      0  02:16       1.442     0.000
  YS02001783              0.01    126.35      0  01:51       0.000     0.000
  YS02001784              0.01     55.04      0  01:51       0.000     0.000
  YS02001786              0.01      5.08      0  01:51       0.000     0.000
  YS02001788              0.01    105.41      0  01:51       0.000     0.000
  YS02001790              0.01    163.85      0  01:51       0.000     0.000
  JK-storage              5.10    969.84      0  02:11       9.168     0.000
  XR-storage              7.22    844.69      0  03:01      10.357     0.000
  
  
  **********************
  Storage Volume Summary
  **********************
  
  --------------------------------------------------------------------------------------------------
                         Average     Avg  Evap Exfil       Maximum     Max    Time of Max    Maximum
                          Volume    Pcnt  Pcnt  Pcnt        Volume    Pcnt     Occurrence    Outflow
  Storage Unit           1000 m3    Full  Loss  Loss       1000 m3    Full    days hr:min        LPS
  --------------------------------------------------------------------------------------------------
  JK-storage               0.264      91     0     0         0.291     100       0  01:51     299.99
  CC-storage               3.203      20     0     0         4.030      26       0  02:48     399.91
  XR-storage               0.920      99     0     0         0.926     100       0  00:36     284.57
  
  
  ***********************
  Outfall Loading Summary
  ***********************
  
  -----------------------------------------------------------
                         Flow       Avg       Max       Total
                         Freq      Flow      Flow      Volume
  Outfall Node           Pcnt       LPS       LPS    10^6 ltr
  -----------------------------------------------------------
  WSC                  100.00    324.70    952.44       7.938
  3                     43.01     81.27    214.29       0.627
  4                     15.71     86.19    271.66       0.222
  5                      0.00      0.00      0.00       0.000
  -----------------------------------------------------------
  System                39.68    492.16   1214.51       8.786
  
  
  ********************
  Link Flow Summary
  ********************
  
  -----------------------------------------------------------------------------
                                 Maximum  Time of Max   Maximum    Max/    Max/
                                  |Flow|   Occurrence   |Veloc|    Full    Full
  Link                 Type          LPS  days hr:min     m/sec    Flow   Depth
  -----------------------------------------------------------------------------
  WS02003066WSF200     CONDUIT    764.23     0  02:01      3.11    0.13    0.28
  WS02006287WS02006284 CONDUIT    655.90     0  01:55      2.36    0.30    0.38
  WS02006284WS02006280 CONDUIT    656.08     0  01:55      2.59    0.27    0.36
  WS02006280WS02006229 CONDUIT    656.09     0  01:55      4.21    0.14    0.25
  WS02006229WS02006228 CONDUIT    741.09     0  01:58      1.47    2.45    1.00
  WS02006256WS02006235 CONDUIT    150.00     0  00:15      2.14    1.59    1.00
  WS02006253WS02006251 CONDUIT    140.81     0  01:54      0.70    0.42    1.00
  WS02006252WS02006251 CONDUIT    399.97     0  03:20      3.18    1.47    1.00
  WS02006251WS02006249 CONDUIT    509.92     0  02:10      1.33    1.47    0.98
  WS02006249WS02006248 CONDUIT    321.41     0  03:21      1.10    1.76    0.95
  WS02006248WS02006247 CONDUIT    324.17     0  03:21      1.09    0.71    0.98
  WS02006247WS02006245 CONDUIT    326.24     0  03:21      1.04    2.59    1.00
  WS02006245WS02006243 CONDUIT    327.41     0  03:21      1.16    0.97    1.00
  WS02006243WS02006242 CONDUIT    328.33     0  03:20      1.02    0.70    1.00
  WS02006242WS02006240 CONDUIT    328.58     0  03:20      0.87    1.30    1.00
  WS02006240WS02006239 CONDUIT    329.14     0  03:20      0.96    1.04    1.00
  WS02006239WS02006238 CONDUIT    329.79     0  03:20      0.86    1.06    1.00
  WS02006238WS02006235 CONDUIT    329.91     0  03:20      0.86    0.74    1.00
  WS02006235WS02006234 CONDUIT    363.18     0  03:22      1.02    3.83    1.00
  WS02006234WS02006232 CONDUIT    363.19     0  03:26      0.95    0.73    1.00
  WS02006232WS02006231 CONDUIT    363.27     0  03:26      0.98    0.76    1.00
  WS02006231WS02006230 CONDUIT    363.96     0  03:26      1.28    5.52    1.00
  WS02006230WS02006229 CONDUIT    375.33     0  03:26      0.98    8.35    1.00
  WS02006228WS02006109 CONDUIT    741.21     0  01:58      1.47    3.24    1.00
  WS02006116WS02004401 CONDUIT    764.96     0  01:59      0.97    1.05    1.00
  WS02006115WS02006116 CONDUIT    764.92     0  01:59      0.97    0.98    1.00
  WS02006113WS02006111 CONDUIT    741.56     0  01:58      2.61    0.89    0.68
  WS02006112WS02006115 CONDUIT    765.01     0  01:59      0.97    0.45    1.00
  WS02006111WS02006112 CONDUIT    741.87     0  01:59      1.73    0.35    0.82
  WS02006110WS02006113 CONDUIT    742.23     0  01:58      1.63    0.68    0.85
  WS02006109WS02006110 CONDUIT    742.21     0  01:58      1.48    1.43    1.00
  WS02004411WS02004412 CONDUIT    764.16     0  02:00      1.11    1.09    0.82
  WS02004401WS02004402 CONDUIT    764.96     0  01:59      0.97    0.92    1.00
  WS02004413WS02003067 CONDUIT    764.17     0  02:01      1.35    0.33    0.68
  WS02004412WS02004413 CONDUIT    764.15     0  02:01      1.04    0.51    0.89
  WS02004410WS02004411 CONDUIT    764.28     0  02:00      1.10    1.04    0.82
  WS02004409WS02004410 CONDUIT    764.58     0  01:59      1.10    0.99    0.82
  WS02004407WS02004409 CONDUIT    765.17     0  01:59      1.61    0.27    0.59
  WS02004406WS02004407 CONDUIT    765.23     0  01:59      1.35    0.34    0.68
  WS02004405WS02004406 CONDUIT    765.22     0  01:59      0.97    1.51    1.00
  WS02004404WS02004405 CONDUIT    765.18     0  01:59      0.97    7.50    1.00
  WS02004403WS02004404 CONDUIT    765.01     0  01:59      0.97    0.55    1.00
  WS02004402WS02004403 CONDUIT    764.98     0  01:59      0.97    1.10    1.00
  WS02004139WS02001211 CONDUIT    260.43     0  05:40      0.50    0.33    0.49
  WS02004138WS02004139 CONDUIT    283.01     0  05:40      1.27    0.06    0.35
  WS02003067WS02003066 CONDUIT    764.21     0  02:01      1.48    0.24    0.47
  WS02001213WS02003059 CONDUIT    242.13     0  05:42      0.50    0.40    0.73
  WS02001212WS02001213 CONDUIT    247.67     0  05:42      1.12    0.38    0.40
  WS02001211WS02001212 CONDUIT    250.98     0  05:41      0.62    0.19    0.54
  WS02003072WS02003073 CONDUIT    950.65     0  02:14      1.73    2.05    0.49
  WS02003069WS02003072 CONDUIT    950.75     0  02:14      1.63    0.46    0.51
  WS02003060WS02003069 CONDUIT    950.84     0  02:13      1.87    0.37    0.46
  WS02003059WS02003060 CONDUIT    235.45     0  05:43      0.63    0.15    0.65
  HS02004901HS02004770 CONDUIT     31.96     0  01:52      0.09    0.12    0.51
  HS02004876HS02004881 CONDUIT    126.38     0  01:55      1.20    1.34    0.15
  HS02004870HS02004876 CONDUIT    102.10     0  01:55      0.82    0.07    0.18
  HS02004842HS02004848 CONDUIT     15.55     0  02:06      0.07    0.01    0.33
  HS02004837HS02004842 CONDUIT     15.96     0  02:07      0.42    0.01    0.35
  HS02004830HS02004837 CONDUIT     62.46     0  01:55      0.66    0.06    0.14
  HS02004824HS02004830 CONDUIT     62.57     0  01:56      0.62    0.08    0.16
  HS02004817HS02004824 CONDUIT    123.43     0  01:59      0.31    0.06    0.58
  HS02004770HS02004777 CONDUIT    165.77     0  01:51      0.46    0.30    0.52
  HS02004799HS02004480 CONDUIT    414.31     0  01:53      1.02    0.52    0.58
  HS02004792HS02004799 CONDUIT    377.22     0  01:52      1.15    0.23    0.47
  HS02004788HS02004792 CONDUIT    218.45     0  01:53      1.24    0.14    0.25
  HS02004785HS02004788 CONDUIT    165.55     0  01:53      0.86    1.25    0.27
  HS02004777HS02004785 CONDUIT    165.45     0  01:52      0.54    0.20    0.44
  HS02004480HS02004478 CONDUIT    492.16     0  01:53      1.52    2.07    0.46
  HS02004479HS02004480 CONDUIT     78.30     0  01:54      0.27    0.08    0.55
  HS02004862HS02004870 CONDUIT     77.53     0  01:55      0.79    0.08    0.14
  HS02004848HS02004852 CONDUIT     36.10     0  01:55      0.52    0.04    0.10
  HS02004856HS02004862 CONDUIT     54.47     0  01:55      0.59    0.05    0.13
  HS02004852HS02004856 CONDUIT     36.15     0  01:56      0.33    0.04    0.16
  HS02004802HS02004478 CONDUIT    170.22     0  01:58      0.53    0.15    0.47
  HS02004478WS02006287 CONDUIT    655.84     0  01:54      2.08    0.18    0.35
  HS02004817HS02004807 CONDUIT    125.36     0  01:59      0.24    0.07    0.75
  HS02004807HS02004802 CONDUIT    169.25     0  01:58      0.47    0.32    0.53
  YS02001759YS02001757 CONDUIT    860.86     0  02:03      1.10    0.61    1.00
  YS02001762YS02001759 CONDUIT    432.40     0  02:03      0.55    0.50    1.00
  YS02001765YS02001762 CONDUIT    432.26     0  02:03      0.55    0.41    1.00
  YS02001770YS02001767 CONDUIT    431.54     0  02:03      0.55    1.71    1.00
  YS02001774YS02001770 CONDUIT    715.46     0  02:52      0.91    0.46    1.00
  YS02001779YS02001774 CONDUIT    715.48     0  02:52      0.91    0.36    1.00
  YS02001649YS02001757 CONDUIT   1006.76     0  01:58      1.28    0.61    1.00
  YS02001767YS02001765 CONDUIT    432.06     0  02:03      0.55    0.54    1.00
  YS02006561YS02001783 CONDUIT    968.35     0  02:10      2.15    0.50    1.00
  YS02001783YS02001784 CONDUIT    968.33     0  02:15      1.93    1.33    1.00
  YS02001784YS02001785 CONDUIT    969.33     0  02:15      1.93    2.26    1.00
  YS02001788YS02001790 CONDUIT    969.46     0  02:15      2.31    0.71    1.00
  YS02001790YS02001791 CONDUIT    969.69     0  02:14      2.84    1.06    1.00
  YS02001791YS02001793 CONDUIT    970.00     0  02:09      5.58    0.42    1.00
  YS02001910YS02001907 CONDUIT    600.32     0  01:57      0.76    0.34    1.00
  YS02001786YS02001788 CONDUIT    969.44     0  02:15      2.23    1.87    1.00
  YS02001915YS02001910 CONDUIT    600.04     0  01:57      0.76    0.30    1.00
  YS02001918YS02001915 CONDUIT    334.43     0  01:57      0.46    0.18    1.00
  YS02001923YS02001920 CONDUIT    330.80     0  01:57      0.78    0.15    1.00
  YS02001926YS02001923 CONDUIT    289.94     0  01:57      0.87    0.41    1.00
  YS02001929YS02001926 CONDUIT    228.14     0  01:57      0.93    0.11    0.95
  YS02001920YS02001918 CONDUIT    333.58     0  01:57      0.75    0.32    1.00
  YS02001629YS02163301 CONDUIT    229.11     0  01:48      0.29    0.28    1.00
  YS02001619YS02001622 CONDUIT    336.72     0  02:16      0.76    0.50    1.00
  YS02001622YS02001625 CONDUIT    336.54     0  02:15      0.43    0.18    1.00
  YS02001625YS02001629 CONDUIT    205.12     0  01:51      0.31    0.10    1.00
  YS02163301YS02001633 CONDUIT    229.20     0  01:48      0.29    0.22    1.00
  YS02163601YS02164001 CONDUIT    425.63     0  01:51      0.54    0.38    1.00
  YS02164001YS02001641 CONDUIT    425.65     0  01:51      0.54    0.58    1.00
  YS02001641YS02001644 CONDUIT    425.79     0  01:51      0.54    1.38    1.00
  YS02001647YS02001649 CONDUIT    813.12     0  02:51      1.04    0.43    1.00
  YS02006553YS02006556 CONDUIT    682.70     0  03:21      0.87    0.58    1.00
  YS02006556YS02006558 CONDUIT    683.13     0  03:22      0.87    0.54    1.00
  YSB6556YSB1171       CONDUIT     43.98     0  01:54      0.13    0.05    0.82
  YS02001907YS02006553 CONDUIT    682.54     0  03:21      0.76    0.80    1.00
  YS02006558YS02006561 CONDUIT    968.35     0  02:15      3.42    2.14    1.00
  YS02001633YS02163601 CONDUIT    425.58     0  01:51      0.54    0.45    1.00
  YS02001644YS02001647 CONDUIT    813.23     0  02:51      1.04    0.48    1.00
  YS02001745YS02001748 CONDUIT    397.68     0  02:16      1.73    0.15    0.98
  YS02001748YS02001751 CONDUIT    396.59     0  02:16      1.25    0.20    1.00
  YS02001751YS02001754 CONDUIT    396.56     0  02:16      1.03    0.19    1.00
  YS02001754YS02001757 CONDUIT    396.94     0  02:16      0.51    0.16    1.00
  YS02001882YS02001884 CONDUIT     91.83     0  01:53      0.12    0.11    1.00
  YS02001884YS02001887 CONDUIT    104.14     0  01:52      0.13    0.14    1.00
  YS02001890YS02001895 CONDUIT    517.78     0  02:25      0.66    0.24    1.00
  YS02001895YS02001898 CONDUIT    517.83     0  02:25      0.66    0.90    1.00
  YS02001898YS02001901 CONDUIT    517.84     0  02:25      0.66    0.33    1.00
  YS02001901YS02001904 CONDUIT    517.87     0  02:29      0.66    0.80    1.00
  YS02001904YS02001907 CONDUIT    517.83     0  02:25      0.66    0.18    1.00
  YS02001887YS02001890 CONDUIT    606.17     0  02:15      0.77    1.04    1.00
  YS02001652YS02001649 CONDUIT    477.57     0  02:11      0.61    0.24    1.00
  YS02001655YS02001652 CONDUIT    476.18     0  02:16      1.09    0.23    1.00
  YS02001658YS02001655 CONDUIT    475.83     0  02:16      1.45    0.20    1.00
  YS02001661YS02001658 CONDUIT    508.07     0  02:14      1.85    0.20    1.00
  YS02001664YS02001661 CONDUIT    768.93     0  02:04      1.75    0.24    0.77
  YSB1154YSB6556       CONDUIT     43.63     0  01:53      0.17    0.08    0.72
  YSB1174YSB1171       CONDUIT     35.16     0  01:50      0.10    0.05    0.83
  YSB1171HS02004479    CONDUIT     78.01     0  01:53      0.54    0.05    0.67
  HS02004881HS02006253 CONDUIT    139.59     0  01:54      2.66    0.03    0.35
  YS02001793JiankangQianchi CONDUIT    993.51     0  01:49      9.84    0.08    1.00
  YS02001757CaochengTiaoxuchi CONDUIT   2128.01     0  02:02      3.68    0.93    1.00
  WSF200WS02003060     CONDUIT    764.29     0  02:01      2.40    0.17    0.37
  1                    CONDUIT    952.44     0  02:15      3.28    0.33    0.40
  2                    CONDUIT    271.66     0  02:10      6.28    0.65    0.59
  3                    CONDUIT    214.29     0  03:30      8.00    0.34    0.41
  4                    CONDUIT      0.00     0  00:00      0.00    0.00    0.00
  CC-Pump-1            PUMP       199.93     0  05:00              1.00
  CC-Pump-2            PUMP       200.00     0  02:10              1.00
  JK-Pump-1            PUMP       299.90     0  04:30              1.00
  JK-Pump-2            PUMP       299.99     0  03:30              1.00
  XR-Pump-1            PUMP        95.00     0  02:10              1.00
  XR-Pump-2            PUMP        94.98     0  01:40              1.00
  XR-Pump-3            PUMP         0.00     0  00:00              0.00
  XR-Pump-4            PUMP        95.00     0  07:40              1.00
  
  
  ***************************
  Flow Classification Summary
  ***************************
  
  -------------------------------------------------------------------------------------
                      Adjusted    ---------- Fraction of Time in Flow Class ---------- 
                       /Actual         Up    Down  Sub   Sup   Up    Down  Norm  Inlet 
  Conduit               Length    Dry  Dry   Dry   Crit  Crit  Crit  Crit  Ltd   Ctrl  
  -------------------------------------------------------------------------------------
  WS02003066WSF200        1.00   0.06  0.00  0.00  0.00  0.94  0.00  0.00  0.71  0.00
  WS02006287WS02006284    1.00   0.05  0.01  0.00  0.55  0.39  0.00  0.00  0.65  0.00
  WS02006284WS02006280    1.00   0.06  0.00  0.00  0.00  0.00  0.00  0.94  0.00  0.00
  WS02006280WS02006229    1.00   0.06  0.00  0.00  0.00  0.00  0.00  0.94  0.00  0.00
  WS02006229WS02006228    1.00   0.00  0.00  0.00  1.00  0.00  0.00  0.00  0.00  0.00
  WS02006256WS02006235    1.00   0.00  0.00  0.00  0.99  0.00  0.00  0.00  0.00  0.00
  WS02006253WS02006251    1.00   0.03  0.02  0.00  0.94  0.00  0.01  0.00  0.00  0.00
  WS02006252WS02006251    1.00   0.08  0.00  0.00  0.00  0.00  0.92  0.00  0.00  0.00
  WS02006251WS02006249    1.00   0.00  0.00  0.00  1.00  0.00  0.00  0.00  0.37  0.00
  WS02006249WS02006248    1.00   0.00  0.00  0.00  0.76  0.00  0.24  0.00  0.00  0.00
  WS02006248WS02006247    1.00   0.00  0.00  0.00  0.97  0.00  0.00  0.03  0.29  0.00
  WS02006247WS02006245    1.00   0.01  0.00  0.00  0.95  0.00  0.00  0.04  0.00  0.00
  WS02006245WS02006243    1.00   0.01  0.00  0.00  0.91  0.00  0.00  0.08  0.03  0.00
  WS02006243WS02006242    1.00   0.01  0.00  0.00  0.98  0.00  0.00  0.00  0.32  0.00
  WS02006242WS02006240    1.00   0.01  0.00  0.00  0.98  0.00  0.02  0.00  0.00  0.00
  WS02006240WS02006239    1.00   0.01  0.00  0.00  0.90  0.00  0.00  0.10  0.03  0.00
  WS02006239WS02006238    1.00   0.01  0.00  0.00  0.99  0.00  0.00  0.00  0.05  0.00
  WS02006238WS02006235    1.00   0.01  0.00  0.00  0.99  0.00  0.00  0.00  0.00  0.00
  WS02006235WS02006234    1.00   0.01  0.00  0.00  0.95  0.00  0.05  0.00  0.00  0.00
  WS02006234WS02006232    1.00   0.01  0.00  0.00  0.99  0.00  0.00  0.00  0.01  0.00
  WS02006232WS02006231    1.00   0.01  0.00  0.00  0.99  0.00  0.00  0.00  0.00  0.00
  WS02006231WS02006230    1.00   0.01  0.00  0.00  0.36  0.00  0.63  0.00  0.00  0.00
  WS02006230WS02006229    1.00   0.00  0.00  0.00  0.99  0.00  0.00  0.01  0.00  0.00
  WS02006228WS02006109    1.00   0.00  0.00  0.00  1.00  0.00  0.00  0.00  0.00  0.00
  WS02006116WS02004401    1.00   0.03  0.00  0.00  0.97  0.00  0.00  0.00  0.00  0.00
  WS02006115WS02006116    1.00   0.03  0.00  0.00  0.96  0.00  0.00  0.01  0.00  0.00
  WS02006113WS02006111    1.00   0.02  0.00  0.00  0.05  0.93  0.00  0.00  0.18  0.00
  WS02006112WS02006115    1.00   0.02  0.01  0.00  0.96  0.00  0.00  0.00  0.00  0.00
  WS02006111WS02006112    1.00   0.02  0.00  0.00  0.97  0.00  0.00  0.00  0.87  0.00
  WS02006110WS02006113    1.00   0.00  0.01  0.00  0.98  0.00  0.00  0.00  0.00  0.00
  WS02006109WS02006110    1.00   0.00  0.00  0.00  0.99  0.00  0.00  0.00  0.00  0.00
  WS02004411WS02004412    1.00   0.04  0.00  0.00  0.96  0.00  0.00  0.00  0.00  0.00
  WS02004401WS02004402    1.00   0.03  0.00  0.00  0.97  0.00  0.00  0.00  0.00  0.00
  WS02004413WS02003067    1.00   0.04  0.01  0.00  0.00  0.00  0.95  0.00  0.00  0.00
  WS02004412WS02004413    1.00   0.04  0.00  0.00  0.96  0.00  0.00  0.00  0.01  0.00
  WS02004410WS02004411    1.00   0.04  0.00  0.00  0.96  0.00  0.00  0.00  0.00  0.00
  WS02004409WS02004410    1.00   0.04  0.00  0.00  0.96  0.00  0.00  0.00  0.02  0.00
  WS02004407WS02004409    1.00   0.04  0.00  0.00  0.96  0.00  0.00  0.00  0.92  0.00
  WS02004406WS02004407    1.00   0.00  0.04  0.00  0.96  0.00  0.00  0.00  0.00  0.00
  WS02004405WS02004406    1.00   0.00  0.00  0.00  1.00  0.00  0.00  0.00  0.03  0.00
  WS02004404WS02004405    1.00   0.00  0.00  0.00  1.00  0.00  0.00  0.00  0.00  0.00
  WS02004403WS02004404    1.00   0.00  0.04  0.00  0.96  0.00  0.00  0.00  0.00  0.00
  WS02004402WS02004403    1.00   0.03  0.00  0.00  0.97  0.00  0.00  0.00  0.00  0.00
  WS02004139WS02001211    1.00   0.00  0.00  0.00  1.00  0.00  0.00  0.00  0.00  0.00
  WS02004138WS02004139    1.00   0.00  0.01  0.00  0.98  0.01  0.00  0.00  0.98  0.00
  WS02003067WS02003066    1.00   0.05  0.00  0.00  0.94  0.00  0.00  0.00  0.00  0.00
  WS02001213WS02003059    1.00   0.00  0.00  0.00  1.00  0.00  0.00  0.00  0.00  0.00
  WS02001212WS02001213    1.00   0.01  0.00  0.00  0.41  0.00  0.58  0.00  0.00  0.00
  WS02001211WS02001212    1.00   0.00  0.01  0.00  0.99  0.00  0.00  0.00  0.00  0.00
  WS02003072WS02003073    1.00   0.00  0.00  0.00  0.00  0.00  0.00  1.00  0.00  0.00
  WS02003069WS02003072    1.00   0.00  0.00  0.00  1.00  0.00  0.00  0.00  0.72  0.00
  WS02003060WS02003069    1.00   0.00  0.00  0.00  0.94  0.06  0.00  0.00  0.50  0.00
  WS02003059WS02003060    1.00   0.00  0.00  0.00  1.00  0.00  0.00  0.00  0.04  0.00
  HS02004901HS02004770    1.00   0.05  0.00  0.00  0.95  0.00  0.00  0.00  0.00  0.00
  HS02004876HS02004881    1.00   0.00  0.00  0.00  0.84  0.16  0.00  0.00  0.00  0.00
  HS02004870HS02004876    1.00   0.00  0.00  0.00  1.00  0.00  0.00  0.00  0.95  0.00
  HS02004842HS02004848    1.00   0.00  0.05  0.00  0.95  0.00  0.00  0.00  0.57  0.00
  HS02004837HS02004842    1.00   0.00  0.00  0.00  1.00  0.00  0.00  0.00  0.11  0.00
  HS02004830HS02004837    1.00   0.00  0.00  0.00  1.00  0.00  0.00  0.00  0.99  0.00
  HS02004824HS02004830    1.00   0.00  0.00  0.00  1.00  0.00  0.00  0.00  0.03  0.00
  HS02004817HS02004824    1.00   0.00  0.00  0.00  1.00  0.00  0.00  0.00  0.94  0.00
  HS02004770HS02004777    1.00   0.00  0.05  0.00  0.95  0.00  0.00  0.00  0.03  0.00
  HS02004799HS02004480    1.00   0.00  0.01  0.00  0.94  0.00  0.05  0.00  0.00  0.00
  HS02004792HS02004799    1.00   0.00  0.00  0.00  1.00  0.00  0.00  0.00  0.98  0.00
  HS02004788HS02004792    1.00   0.00  0.00  0.00  1.00  0.00  0.00  0.00  0.98  0.00
  HS02004785HS02004788    1.00   0.00  0.00  0.00  1.00  0.00  0.00  0.00  0.00  0.00
  HS02004777HS02004785    1.00   0.00  0.00  0.00  1.00  0.00  0.00  0.00  0.13  0.00
  HS02004480HS02004478    1.00   0.06  0.00  0.00  0.59  0.00  0.00  0.36  0.00  0.00
  HS02004479HS02004480    1.00   0.01  0.00  0.00  0.99  0.00  0.00  0.00  0.12  0.00
  HS02004862HS02004870    1.00   0.00  0.00  0.00  1.00  0.00  0.00  0.00  0.04  0.00
  HS02004848HS02004852    1.00   0.05  0.00  0.00  0.95  0.00  0.00  0.00  0.78  0.00
  HS02004856HS02004862    1.00   0.00  0.06  0.00  0.94  0.00  0.00  0.00  0.82  0.00
  HS02004852HS02004856    1.00   0.05  0.00  0.00  0.94  0.00  0.00  0.00  0.77  0.00
  HS02004802HS02004478    1.00   0.06  0.00  0.00  0.94  0.00  0.00  0.00  0.03  0.00
  HS02004478WS02006287    1.00   0.06  0.00  0.00  0.67  0.27  0.00  0.00  0.62  0.00
  HS02004817HS02004807    1.00   0.00  0.05  0.00  0.95  0.00  0.00  0.00  0.01  0.00
  HS02004807HS02004802    1.00   0.05  0.00  0.00  0.94  0.00  0.00  0.00  0.00  0.00
  YS02001759YS02001757    1.00   0.00  0.00  0.00  1.00  0.00  0.00  0.00  0.16  0.00
  YS02001762YS02001759    1.00   0.00  0.00  0.00  1.00  0.00  0.00  0.00  0.03  0.00
  YS02001765YS02001762    1.00   0.00  0.00  0.00  1.00  0.00  0.00  0.00  0.14  0.00
  YS02001770YS02001767    1.00   0.00  0.00  0.00  1.00  0.00  0.00  0.00  0.00  0.00
  YS02001774YS02001770    1.00   0.00  0.06  0.00  0.94  0.00  0.00  0.00  0.03  0.00
  YS02001779YS02001774    1.00   0.00  0.00  0.00  1.00  0.00  0.00  0.00  0.18  0.00
  YS02001649YS02001757    1.00   0.00  0.00  0.00  1.00  0.00  0.00  0.00  0.16  0.00
  YS02001767YS02001765    1.00   0.00  0.00  0.00  1.00  0.00  0.00  0.00  0.00  0.00
  YS02006561YS02001783    1.00   0.07  0.00  0.00  0.85  0.08  0.00  0.00  0.51  0.00
  YS02001783YS02001784    1.00   0.00  0.07  0.00  0.93  0.00  0.00  0.00  0.00  0.00
  YS02001784YS02001785    1.00   0.00  0.00  0.00  1.00  0.00  0.00  0.00  0.18  0.00
  YS02001788YS02001790    1.00   0.00  0.00  0.00  0.96  0.04  0.00  0.00  0.19  0.00
  YS02001790YS02001791    1.00   0.00  0.00  0.00  0.89  0.11  0.00  0.00  0.03  0.00
  YS02001791YS02001793    1.00   0.00  0.00  0.00  0.89  0.11  0.00  0.00  0.00  0.00
  YS02001910YS02001907    1.00   0.00  0.00  0.00  0.99  0.00  0.00  0.01  0.12  0.00
  YS02001786YS02001788    1.00   0.00  0.00  0.00  0.96  0.04  0.00  0.00  0.00  0.00
  YS02001915YS02001910    1.00   0.00  0.00  0.00  0.99  0.01  0.00  0.00  0.16  0.00
  YS02001918YS02001915    1.00   0.00  0.00  0.00  0.99  0.00  0.00  0.00  0.52  0.00
  YS02001923YS02001920    1.00   0.00  0.00  0.00  1.00  0.00  0.00  0.00  0.74  0.00
  YS02001926YS02001923    1.00   0.00  0.04  0.00  0.31  0.00  0.65  0.00  0.00  0.00
  YS02001929YS02001926    1.00   0.00  0.05  0.00  0.95  0.00  0.00  0.00  0.66  0.00
  YS02001920YS02001918    1.00   0.00  0.00  0.00  1.00  0.00  0.00  0.00  0.00  0.00
  YS02001629YS02163301    1.00   0.06  0.00  0.00  0.94  0.00  0.00  0.00  0.00  0.00
  YS02001619YS02001622    1.00   0.05  0.00  0.00  0.95  0.00  0.00  0.00  0.00  0.00
  YS02001622YS02001625    1.00   0.05  0.00  0.00  0.95  0.00  0.00  0.00  0.05  0.00
  YS02001625YS02001629    1.00   0.05  0.01  0.00  0.92  0.00  0.01  0.00  0.00  0.00
  YS02163301YS02001633    1.00   0.00  0.06  0.00  0.94  0.00  0.00  0.00  0.00  0.00
  YS02163601YS02164001    1.00   0.00  0.04  0.00  0.96  0.00  0.00  0.00  0.00  0.00
  YS02164001YS02001641    1.00   0.00  0.04  0.00  0.96  0.00  0.00  0.00  0.06  0.00
  YS02001641YS02001644    1.00   0.00  0.00  0.00  1.00  0.00  0.00  0.00  0.00  0.00
  YS02001647YS02001649    1.00   0.00  0.07  0.00  0.93  0.00  0.00  0.00  0.01  0.00
  YS02006553YS02006556    1.00   0.00  0.00  0.00  1.00  0.00  0.00  0.00  0.03  0.00
  YS02006556YS02006558    1.00   0.00  0.00  0.00  1.00  0.00  0.00  0.00  0.00  0.00
  YSB6556YSB1171          1.00   0.02  0.04  0.00  0.95  0.00  0.00  0.00  0.00  0.00
  YS02001907YS02006553    1.00   0.00  0.00  0.00  0.99  0.00  0.00  0.00  0.00  0.00
  YS02006558YS02006561    1.00   0.07  0.00  0.00  0.33  0.60  0.00  0.00  0.45  0.00
  YS02001633YS02163601    1.00   0.00  0.00  0.00  1.00  0.00  0.00  0.00  0.15  0.00
  YS02001644YS02001647    1.00   0.00  0.07  0.00  0.93  0.00  0.00  0.00  0.00  0.00
  YS02001745YS02001748    1.00   0.00  0.00  0.00  0.90  0.00  0.00  0.10  0.01  0.00
  YS02001748YS02001751    1.00   0.00  0.00  0.00  0.97  0.03  0.00  0.00  0.14  0.00
  YS02001751YS02001754    1.00   0.00  0.00  0.00  0.93  0.00  0.00  0.07  0.01  0.00
  YS02001754YS02001757    1.00   0.00  0.00  0.00  1.00  0.00  0.00  0.00  0.18  0.00
  YS02001882YS02001884    1.00   0.06  0.00  0.00  0.94  0.00  0.00  0.00  0.00  0.00
  YS02001884YS02001887    1.00   0.04  0.01  0.00  0.95  0.00  0.00  0.00  0.00  0.00
  YS02001890YS02001895    1.00   0.00  0.06  0.00  0.94  0.00  0.00  0.00  0.00  0.00
  YS02001895YS02001898    1.00   0.06  0.00  0.00  0.93  0.00  0.01  0.00  0.00  0.00
  YS02001898YS02001901    1.00   0.06  0.00  0.00  0.94  0.00  0.00  0.00  0.01  0.00
  YS02001901YS02001904    1.00   0.06  0.00  0.00  0.94  0.00  0.00  0.00  0.00  0.00
  YS02001904YS02001907    1.00   0.00  0.06  0.00  0.94  0.00  0.00  0.00  0.00  0.00
  YS02001887YS02001890    1.00   0.00  0.00  0.00  0.99  0.00  0.01  0.00  0.00  0.00
  YS02001652YS02001649    1.00   0.00  0.00  0.00  1.00  0.00  0.00  0.00  0.16  0.00
  YS02001655YS02001652    1.00   0.00  0.00  0.00  0.93  0.00  0.00  0.07  0.01  0.00
  YS02001658YS02001655    1.00   0.00  0.06  0.00  0.92  0.02  0.00  0.00  0.02  0.00
  YS02001661YS02001658    1.00   0.06  0.00  0.00  0.90  0.05  0.00  0.00  0.00  0.00
  YS02001664YS02001661    1.00   0.05  0.00  0.00  0.91  0.04  0.00  0.00  0.11  0.00
  YSB1154YSB6556          1.00   0.05  0.00  0.00  0.95  0.00  0.00  0.00  0.02  0.00
  YSB1174YSB1171          1.00   0.03  0.01  0.00  0.95  0.00  0.00  0.00  0.00  0.00
  YSB1171HS02004479       1.00   0.02  0.00  0.00  0.96  0.00  0.00  0.02  0.11  0.00
  HS02004881HS02006253    1.00   0.03  0.00  0.00  0.44  0.09  0.00  0.44  0.34  0.00
  YS02001793JiankangQianchi    1.00   0.00  0.00  0.00  0.96  0.04  0.00  0.00  0.16  0.00
  YS02001757CaochengTiaoxuchi    1.00   0.00  0.08  0.00  0.88  0.04  0.00  0.00  0.00  0.00
  WSF200WS02003060        1.00   0.00  0.06  0.00  0.23  0.71  0.00  0.00  0.46  0.00
  1                       1.00   0.00  0.00  0.00  0.00  1.00  0.00  0.00  0.30  0.00
  2                       1.00   0.84  0.00  0.00  0.00  0.16  0.00  0.00  0.04  0.00
  3                       1.00   0.57  0.00  0.00  0.00  0.43  0.00  0.00  0.27  0.00
  4                       1.00   1.00  0.00  0.00  0.00  0.00  0.00  0.00  0.00  0.00
  
  
  *************************
  Conduit Surcharge Summary
  *************************
  
  ----------------------------------------------------------------------------
                                                           Hours        Hours 
                         --------- Hours Full --------   Above Full   Capacity
  Conduit                Both Ends  Upstream  Dnstream   Normal Flow   Limited
  ----------------------------------------------------------------------------
  WS02006229WS02006228        1.49      1.52      1.49      2.13         1.49
  WS02006256WS02006235        4.64      4.64      7.28      1.43         0.01
  WS02006253WS02006251        0.05      0.05      0.11      0.01         0.01
  WS02006252WS02006251        0.16      0.16      0.45      0.37         0.01
  WS02006251WS02006249        0.01      0.07      0.01      0.32         0.01
  WS02006249WS02006248        0.01      0.01      0.01      1.71         0.01
  WS02006248WS02006247        0.01      0.01      0.11      0.01         0.01
  WS02006247WS02006245        0.11      0.15      0.11      2.66         0.11
  WS02006245WS02006243        0.14      0.14      0.24      0.01         0.01
  WS02006243WS02006242        0.27      0.27      0.68      0.01         0.01
  WS02006242WS02006240        0.51      0.51      0.83      0.29         0.01
  WS02006240WS02006239        0.52      0.52      0.58      0.03         0.01
  WS02006239WS02006238        0.85      0.86      0.92      0.04         0.02
  WS02006238WS02006235        0.88      0.88      1.08      0.01         0.01
  WS02006235WS02006234        0.64      0.64      0.81      4.24         0.04
  WS02006234WS02006232        0.66      0.66      1.22      0.01         0.01
  WS02006232WS02006231        0.65      0.65      1.22      0.01         0.01
  WS02006231WS02006230        0.63      0.63      0.66      4.74         0.03
  WS02006230WS02006229        1.69      1.81      1.69      5.37         1.58
  WS02006228WS02006109        1.51      1.61      1.51      2.64         1.51
  WS02006116WS02004401        0.47      0.47      0.47      0.39         0.39
  WS02006115WS02006116        0.23      0.23      0.25      0.01         0.01
  WS02006112WS02006115        0.06      0.06      0.87      0.01         0.01
  WS02006111WS02006112        0.01      0.01      2.16      0.01         0.01
  WS02006110WS02006113        0.01      0.01      1.57      0.01         0.01
  WS02006109WS02006110        0.77      0.77      1.61      0.77         0.01
  WS02004411WS02004412        0.01      0.01      0.01      0.44         0.01
  WS02004401WS02004402        0.47      0.47      0.52      0.01         0.01
  WS02004410WS02004411        0.01      0.01      0.01      0.35         0.01
  WS02004406WS02004407        0.01      0.01      0.62      0.01         0.01
  WS02004405WS02004406        0.62      0.65      0.62      0.80         0.62
  WS02004404WS02004405        0.65      0.67      0.65      5.00         0.65
  WS02004403WS02004404        0.52      0.52      0.67      0.01         0.01
  WS02004402WS02004403        0.52      0.52      0.52      0.46         0.46
  WS02003072WS02003073        0.01      0.01      0.01      1.49         0.01
  HS02004876HS02004881        0.01      0.01      0.01      0.49         0.01
  HS02004785HS02004788        0.01      0.01      0.01      0.35         0.01
  HS02004480HS02004478        0.01      0.01      0.01      0.79         0.01
  YS02001759YS02001757        6.09      6.09      6.12      0.01         0.01
  YS02001762YS02001759        6.09      6.09      6.09      0.01         0.01
  YS02001765YS02001762        6.08      6.08      6.09      0.01         0.01
  YS02001770YS02001767        6.07      6.07      6.07      0.72         0.68
  YS02001774YS02001770        6.07      6.07      6.08      0.01         0.01
  YS02001779YS02001774        6.04      6.04      6.08      0.01         0.01
  YS02001649YS02001757        6.08      6.08      6.12      0.01         0.01
  YS02001767YS02001765        6.07      6.07      6.08      0.01         0.01
  YS02006561YS02001783        1.66      1.66      2.14      0.01         0.01
  YS02001783YS02001784        2.14      2.14      2.19      2.02         1.97
  YS02001784YS02001785        2.15      2.19      2.15      2.75         2.15
  YS02001788YS02001790        2.13      2.13      5.60      0.01         0.01
  YS02001790YS02001791        5.60      5.60      5.88      1.51         1.50
  YS02001791YS02001793        5.88      5.88      6.00      0.01         0.01
  YS02001910YS02001907        1.94      1.94      2.28      0.01         0.01
  YS02001786YS02001788        2.13      2.15      2.13      2.41         2.13
  YS02001915YS02001910        1.77      1.77      1.94      0.01         0.01
  YS02001918YS02001915        1.55      1.55      1.77      0.01         0.01
  YS02001923YS02001920        1.36      1.36      1.58      0.01         0.01
  YS02001926YS02001923        0.01      0.01      0.01      0.01         0.01
  YS02001929YS02001926        0.01      0.01      0.01      0.01         0.01
  YS02001920YS02001918        1.55      1.55      1.58      0.01         0.01
  YS02001629YS02163301        6.06      6.06      6.07      0.01         0.01
  YS02001619YS02001622        6.02      6.02      6.02      0.01         0.01
  YS02001622YS02001625        6.02      6.02      6.05      0.01         0.01
  YS02001625YS02001629        6.02      6.02      6.05      0.01         0.01
  YS02163301YS02001633        6.07      6.07      6.08      0.01         0.01
  YS02163601YS02164001        6.08      6.08      6.09      0.01         0.01
  YS02164001YS02001641        6.08      6.08      6.08      0.01         0.02
  YS02001641YS02001644        6.08      6.08      6.08      2.21         2.15
  YS02001647YS02001649        6.05      6.05      6.08      0.01         0.01
  YS02006553YS02006556        2.12      2.12      2.36      0.01         0.01
  YS02006556YS02006558        2.18      2.18      2.40      0.01         0.01
  YSB6556YSB1171              0.01      0.01      0.14      0.01         0.01
  YS02001907YS02006553        2.76      2.76      2.96      0.01         0.01
  YS02006558YS02006561        1.85      2.09      1.85      2.63         1.85
  YS02001633YS02163601        6.08      6.08      6.09      0.01         0.01
  YS02001644YS02001647        6.05      6.05      6.08      0.01         0.01
  YS02001745YS02001748        0.01      0.01      5.99      0.01         0.01
  YS02001748YS02001751        5.99      5.99      6.02      0.01         0.01
  YS02001751YS02001754        6.02      6.02      6.04      0.01         0.01
  YS02001754YS02001757        6.05      6.05      6.12      0.01         0.01
  YS02001882YS02001884        1.77      1.77      1.80      0.01         0.01
  YS02001884YS02001887        1.84      1.84      1.87      0.01         0.01
  YS02001890YS02001895        1.75      1.75      1.96      0.01         0.01
  YS02001895YS02001898        1.74      1.74      1.75      0.01         0.01
  YS02001898YS02001901        1.76      1.76      1.85      0.01         0.01
  YS02001901YS02001904        1.82      1.82      1.85      0.01         0.01
  YS02001904YS02001907        1.82      1.82      2.37      0.01         0.01
  YS02001887YS02001890        1.90      1.90      1.93      0.20         0.01
  YS02001652YS02001649        6.06      6.06      6.08      0.01         0.01
  YS02001655YS02001652        6.02      6.02      6.05      0.01         0.01
  YS02001658YS02001655        5.99      5.99      6.02      0.01         0.01
  YS02001661YS02001658        0.12      0.12      5.99      0.01         0.01
  YS02001664YS02001661        0.01      0.01      1.45      0.01         0.01
  YS02001793JiankangQianchi        6.00      6.00      6.48      0.01         0.01
  YS02001757CaochengTiaoxuchi        5.61      5.61      6.12      0.01         0.01
  
  
  ***************
  Pumping Summary
  ***************
  
  ---------------------------------------------------------------------------------------------------------
                                                  Min       Avg       Max     Total     Power    % Time Off
                        Percent   Number of      Flow      Flow      Flow    Volume     Usage    Pump Curve
  Pump                 Utilized   Start-Ups       LPS       LPS       LPS  10^6 ltr     Kw-hr    Low   High
  ---------------------------------------------------------------------------------------------------------
  CC-Pump-1               23.95           5      0.00    104.81    199.93     0.669      0.86    0.0   11.2
  CC-Pump-2               38.30           6      0.00    151.80    200.00     1.500      1.20    0.0    0.0
  JK-Pump-1               21.26           5      0.00    153.26    299.90     0.747      5.29    0.0    0.0
  JK-Pump-2               21.26           4      0.00    158.67    299.99     0.725      2.99    0.0    0.0
  XR-Pump-1               57.45           8      0.00     54.52     95.00     0.826      3.84    0.0    0.0
  XR-Pump-2               17.02           4      0.00     46.38     94.98     0.228      1.01    0.0    0.0
  XR-Pump-3                0.00           0      0.00      0.00      0.00     0.000      0.00    0.0    0.0
  XR-Pump-4               25.52           6      0.00     53.38     95.00     0.370      1.84    0.0    0.0
  

  Analysis begun on:  Thu Jan  6 19:15:50 2022
  Analysis ended on:  Thu Jan  6 19:15:51 2022
  Total elapsed time: 00:00:01