
  EPA STORM WATER MANAGEMENT MODEL - VERSION 5.1 (Build 5.3.0.dev0)
  --------------------------------------------------------------

  WARNING 04: minimum elevation drop used for Conduit WS02004404WS02004405
  WARNING 03: negative offset ignored for Link YS02001904YS02001907
  
  *********************************************************
  NOTE: The summary statistics displayed in this report are
  based on results found at every computational time step,  
  not just on results from each reporting time step.
  *********************************************************
  
  ****************
  Analysis Options
  ****************
  Flow Units ............... LPS
  Process Models:
    Rainfall/Runoff ........ YES
    RDII ................... NO
    Snowmelt ............... NO
    Groundwater ............ NO
    Flow Routing ........... YES
    Ponding Allowed ........ NO
    Water Quality .......... NO
  Infiltration Method ...... HORTON
  Flow Routing Method ...... DYNWAVE
  Surcharge Method ......... EXTRAN
  Starting Date ............ 08/28/2015 08:00:00
  Ending Date .............. 08/28/2015 15:50:00
  Antecedent Dry Days ...... 8.0
  Report Time Step ......... 00:01:00
  Wet Time Step ............ 00:01:00
  Dry Time Step ............ 00:01:00
  Routing Time Step ........ 5.00 sec
  Variable Time Step ....... YES
  Maximum Trials ........... 8
  Number of Threads ........ 4
  Head Tolerance ........... 0.001500 m
  
  
  **************************        Volume         Depth
  Runoff Quantity Continuity     hectare-m            mm
  **************************     ---------       -------
  Total Precipitation ......         5.493        12.027
  Evaporation Loss .........         0.000         0.000
  Infiltration Loss ........         1.412         3.091
  Surface Runoff ...........         3.074         6.729
  Final Storage ............         1.009         2.209
  Continuity Error (%) .....        -0.014
  
  
  **************************        Volume        Volume
  Flow Routing Continuity        hectare-m      10^6 ltr
  **************************     ---------     ---------
  Dry Weather Inflow .......         0.616         6.165
  Wet Weather Inflow .......         3.072        30.724
  Groundwater Inflow .......         0.000         0.000
  RDII Inflow ..............         0.000         0.000
  External Inflow ..........         0.102         1.024
  External Outflow .........         2.377        23.769
  Flooding Loss ............         1.095        10.952
  Evaporation Loss .........         0.000         0.000
  Exfiltration Loss ........         0.000         0.000
  Initial Stored Volume ....         0.076         0.761
  Final Stored Volume ......         0.572         5.720
  Continuity Error (%) .....        -4.573
  
  
  *************************
  Highest Continuity Errors
  *************************
  Node JK-storage (-19.50%)
  Node HS02004842 (16.38%)
  Node YS02001884 (10.33%)
  Node YSB1171 (3.16%)
  Node HS02004817 (3.01%)
  
  
  ***************************
  Time-Step Critical Elements
  ***************************
  Link 3 (74.45%)
  Link WS02006252WS02006251 (20.28%)
  
  
  ********************************
  Highest Flow Instability Indexes
  ********************************
  Link YS02001629YS02163301 (36)
  Link YS02163301YS02001633 (36)
  Link YS02163601YS02164001 (36)
  Link YS02001619YS02001622 (35)
  Link YS02164001YS02001641 (33)
  
  
  *************************
  Routing Time Step Summary
  *************************
  Minimum Time Step           :     0.40 sec
  Average Time Step           :     0.71 sec
  Maximum Time Step           :     5.00 sec
  Percent in Steady State     :    -0.00
  Average Iterations per Step :     4.55
  Percent Not Converging      :    21.91
  
  
  ***************************
  Subcatchment Runoff Summary
  ***************************
  
  ------------------------------------------------------------------------------------------------------------------------------
                            Total      Total      Total      Total     Imperv       Perv      Total       Total     Peak  Runoff
                           Precip      Runon       Evap      Infil     Runoff     Runoff     Runoff      Runoff   Runoff   Coeff
  Subcatchment                 mm         mm         mm         mm         mm         mm         mm    10^6 ltr      LPS
  ------------------------------------------------------------------------------------------------------------------------------
  sub0                      12.03       0.00       0.00       0.84       9.92       0.00       9.92        0.01     2.03   0.825
  sub1                      12.03       0.00       0.00       1.32       9.45       0.00       9.45        0.06    13.40   0.786
  sub2                      12.03       0.00       0.00       4.45       6.67       0.00       6.67        0.06    12.40   0.555
  sub3                      12.03       0.00       0.00       4.45       6.63       0.00       6.63        0.15    27.80   0.552
  sub4                      12.03       0.00       0.00       1.32       9.30       0.00       9.30        0.19    33.44   0.773
  sub5                      12.03       0.00       0.00       0.84       9.87       0.00       9.87        0.11    23.84   0.821
  sub7                      12.03       0.00       0.00       1.08       9.69       0.00       9.69        0.03     7.67   0.806
  sub8                      12.03       0.00       0.00       1.08       9.68       0.00       9.68        0.06    14.05   0.805
  sub9                      12.03       0.00       0.00       1.08       9.68       0.00       9.68        0.05    10.50   0.805
  sub10                     12.03       0.00       0.00       0.96       9.77       0.00       9.77        0.11    23.44   0.813
  sub11                     12.03       0.00       0.00       0.96       9.79       0.00       9.79        0.11    26.14   0.814
  sub12                     12.03       0.00       0.00       1.56       9.28       0.00       9.28        0.08    19.99   0.771
  sub14                     12.03       0.00       0.00       1.08       9.68       0.00       9.68        0.09    20.64   0.805
  sub15                     12.03       0.00       0.00       3.61       7.44       0.00       7.44        0.13    28.31   0.619
  sub16                     12.03       0.00       0.00       3.97       7.14       0.00       7.14        0.07    18.12   0.594
  sub17                     12.03       0.00       0.00       3.85       7.24       0.00       7.24        0.06    14.90   0.602
  sub22                     12.03       0.00       0.00       5.17       6.07       0.00       6.07        0.38    88.71   0.504
  sub23                     12.03       0.00       0.00       4.45       6.71       0.00       6.71        0.32    74.74   0.558
  sub60                     12.03       0.00       0.00       1.44       7.74       0.00       7.74        2.35   221.95   0.644
  sub61                     12.03       0.00       0.00       2.04       7.85       0.00       7.85        2.42   262.11   0.653
  sub62                     12.03       0.00       0.00       0.96       8.54       0.00       8.54        2.63   273.68   0.710
  sub63                     12.03       0.00       0.00       3.49       6.87       0.00       6.87        2.08   239.63   0.571
  sub64                     12.03       0.00       0.00       1.80       7.43       0.00       7.43        2.26   211.47   0.618
  sub65                     12.03       0.00       0.00       1.56       7.55       0.00       7.55        2.32   215.23   0.628
  sub66                     12.03       0.00       0.00       3.49       6.37       0.00       6.37        1.95   191.04   0.530
  sub67                     12.03       0.00       0.00       0.96       9.00       0.00       9.00        2.78   332.67   0.749
  sub68                     12.03       0.00       0.00       1.68       8.26       0.00       8.26        2.54   285.76   0.687
  sub69                     12.03       0.00       0.00       1.80       8.55       0.00       8.55        2.00   265.64   0.711
  sub70                     12.03       8.73       0.00       6.95      11.44       0.11      11.55        2.64   261.84   0.556
  sub71                     12.03       0.00       0.00       0.96       8.33       0.00       8.33        1.97   195.24   0.692
  sub72                     12.03       0.00       0.00       0.84       6.67       0.00       6.67        1.36   105.11   0.555
  sub73                     12.03      11.24       0.00       7.83      12.57       0.08      12.65        2.97   255.46   0.544
  sub74                     12.03       0.00       0.00       9.02       2.55       0.00       2.55        1.02   143.98   0.212
  
  
  ******************
  Node Depth Summary
  ******************
  
  ---------------------------------------------------------------------------------
                                 Average  Maximum  Maximum  Time of Max    Reported
                                   Depth    Depth      HGL   Occurrence   Max Depth
  Node                 Type       Meters   Meters   Meters  days hr:min      Meters
  ---------------------------------------------------------------------------------
  WS02001211           JUNCTION     0.63     0.73     5.57     0  02:16        0.73
  WS02001212           JUNCTION     0.36     0.45     5.52     0  02:15        0.45
  WS02001213           JUNCTION     0.61     0.72     5.48     0  02:14        0.72
  WS02003069           JUNCTION     0.45     0.56     5.15     0  02:14        0.56
  WS02003072           JUNCTION     0.51     0.62     4.99     0  02:14        0.62
  WS02003073           JUNCTION     0.31     0.38     4.45     0  02:15        0.38
  WS02003060           JUNCTION     0.40     0.50     5.43     0  02:13        0.50
  WS02003066           JUNCTION     0.25     0.32     5.88     0  01:52        0.32
  WS02003059           JUNCTION     0.67     0.77     5.46     0  02:14        0.77
  WS02003067           JUNCTION     0.61     0.74     6.06     0  01:52        0.74
  WS02004401           JUNCTION     0.74     0.96     6.96     0  01:48        0.96
  WS02004402           JUNCTION     0.77     0.98     6.94     0  01:49        0.98
  WS02004403           JUNCTION     0.78     0.99     6.92     0  01:49        0.99
  WS02004404           JUNCTION     0.86     1.05     6.90     0  01:49        1.05
  WS02004406           JUNCTION     0.86     1.02     6.85     0  01:49        1.02
  WS02004409           JUNCTION     0.56     0.75     6.52     0  01:52        0.75
  WS02004410           JUNCTION     0.57     0.76     6.48     0  01:52        0.76
  WS02004411           JUNCTION     0.58     0.76     6.44     0  01:52        0.76
  WS02004412           JUNCTION     0.59     0.76     6.40     0  01:53        0.76
  WS02004413           JUNCTION     0.75     0.91     6.38     0  01:52        0.91
  WS02004405           JUNCTION     0.85     1.04     6.89     0  01:51        1.04
  WS02006109           JUNCTION     0.83     1.10     7.71     0  01:53        1.08
  WS02006110           JUNCTION     0.81     1.02     7.61     0  01:53        1.00
  WS02006111           JUNCTION     0.25     0.34     7.05     0  01:48        0.34
  WS02006112           JUNCTION     0.92     1.19     7.08     0  02:08        1.17
  WS02006113           JUNCTION     0.38     0.51     7.40     0  01:45        0.50
  WS02006115           JUNCTION     0.63     0.87     7.01     0  01:48        0.87
  WS02006116           JUNCTION     0.71     0.95     6.99     0  01:48        0.95
  WS02006230           JUNCTION     0.83     1.23     7.97     0  01:39        1.15
  WS02006231           JUNCTION     0.55     0.91     8.03     0  01:39        0.81
  WS02006232           JUNCTION     0.69     1.00     8.04     0  01:39        0.92
  WS02006234           JUNCTION     0.63     1.03     8.18     0  01:39        0.84
  WS02006235           JUNCTION     0.66     0.96     8.12     0  01:39        0.86
  WS02006238           JUNCTION     0.69     0.96     8.11     0  01:39        0.88
  WS02006240           JUNCTION     0.60     0.94     8.23     0  01:39        0.77
  WS02006242           JUNCTION     0.65     1.47     8.74     0  01:39        0.82
  WS02006243           JUNCTION     0.54     0.70     8.12     0  03:03        0.70
  WS02006245           JUNCTION     0.51     0.67     8.15     0  03:05        0.67
  WS02006247           JUNCTION     0.52     0.68     8.18     0  01:49        0.67
  WS02006248           JUNCTION     0.47     0.61     8.20     0  03:05        0.61
  WS02006249           JUNCTION     0.49     0.62     8.22     0  03:05        0.62
  WS02006239           JUNCTION     0.65     0.97     8.18     0  01:39        0.84
  WS02006251           JUNCTION     0.49     0.65     8.32     0  03:04        0.65
  WS02006252           JUNCTION     0.43     0.59     8.84     0  03:06        0.59
  WS02006253           JUNCTION     0.52     0.67     8.32     0  03:04        0.67
  WS02006256           JUNCTION     1.13     2.35     9.28     0  00:00        1.21
  WS02004138           JUNCTION     0.14     0.17     7.42     0  02:13        0.17
  WS02004407           JUNCTION     0.25     0.33     6.64     0  01:49        0.33
  WS02006228           JUNCTION     0.84     1.16     7.81     0  01:44        1.15
  WS02006229           JUNCTION     0.82     1.17     7.86     0  01:43        1.16
  WS02006280           JUNCTION     0.07     0.19     8.46     0  01:42        0.19
  WS02006284           JUNCTION     0.38     0.54     8.94     0  01:42        0.54
  WS02006287           JUNCTION     0.11     0.28     9.23     0  01:42        0.28
  WSF200               JUNCTION     0.25     0.34     5.57     0  01:50        0.34
  HS02004901           JUNCTION     0.13     0.28    10.10     0  01:39        0.28
  HS02004881           JUNCTION     0.01     0.03     9.06     0  01:43        0.03
  HS02004876           JUNCTION     0.05     0.12     9.15     0  01:43        0.12
  HS02004870           JUNCTION     0.02     0.06     9.35     0  01:43        0.06
  HS02004862           JUNCTION     0.02     0.07     9.45     0  01:44        0.07
  HS02004856           JUNCTION     0.08     0.12     9.55     0  01:44        0.12
  HS02004852           JUNCTION     0.01     0.04     9.56     0  01:52        0.04
  HS02004848           JUNCTION     0.01     0.04     9.64     0  01:51        0.04
  HS02004842           JUNCTION     0.34     0.37     9.64     0  01:51        0.37
  HS02004837           JUNCTION     0.03     0.06     9.64     0  01:51        0.06
  HS02004830           JUNCTION     0.04     0.08     9.55     0  01:45        0.08
  HS02004824           JUNCTION     0.03     0.06     9.46     0  01:54        0.06
  HS02004817           JUNCTION     0.45     0.59     9.43     0  01:43        0.59
  HS02004807           JUNCTION     0.13     0.26     9.43     0  01:43        0.26
  HS02004802           JUNCTION     0.17     0.30     9.42     0  01:43        0.29
  HS02004799           JUNCTION     0.13     0.33     9.54     0  01:40        0.33
  HS02004792           JUNCTION     0.04     0.14     9.66     0  01:40        0.14
  HS02004788           JUNCTION     0.03     0.10    10.00     0  01:40        0.10
  HS02004785           JUNCTION     0.05     0.17    10.07     0  01:40        0.17
  HS02004777           JUNCTION     0.16     0.30    10.10     0  01:39        0.30
  HS02004770           JUNCTION     0.13     0.27    10.10     0  01:39        0.27
  HS02004480           JUNCTION     0.09     0.27     9.51     0  01:41        0.27
  HS02004479           JUNCTION     0.13     0.30     9.51     0  01:40        0.30
  HS02004478           JUNCTION     0.07     0.18     9.41     0  01:42        0.18
  YS02001745           JUNCTION     0.71     0.89     8.41     0  02:51        0.89
  YS02001748           JUNCTION     1.12     2.27     9.35     0  02:08        1.33
  YS02001751           JUNCTION     1.31     2.20     9.08     0  02:00        1.53
  YS02001754           JUNCTION     1.56     2.10     8.71     0  02:09        1.81
  YS02001762           JUNCTION     1.77     2.03     8.43     0  02:54        2.03
  YS02001765           JUNCTION     1.72     1.98     8.43     0  02:44        1.97
  YS02001767           JUNCTION     1.68     1.94     8.43     0  02:54        1.93
  YS02001770           JUNCTION     1.68     1.95     8.44     0  02:09        1.91
  YS02001774           JUNCTION     1.75     2.01     8.43     0  02:09        1.97
  YS02001779           JUNCTION     1.49     1.68     8.37     0  02:00        1.68
  YS02001882           JUNCTION     0.52     1.32     8.03     0  02:34        1.30
  YS02001884           JUNCTION     0.61     1.42     8.03     0  02:34        1.40
  YS02001759           JUNCTION     1.80     2.08     8.44     0  02:49        2.07
  YS02001887           JUNCTION     0.69     1.50     8.04     0  02:33        1.48
  YS02001890           JUNCTION     0.72     1.53     8.04     0  02:33        1.51
  YS02001898           JUNCTION     0.49     1.28     8.01     0  02:34        1.27
  YS02001901           JUNCTION     0.61     1.40     8.01     0  02:34        1.39
  YS02001904           JUNCTION     0.59     1.37     8.00     0  02:33        1.36
  YS02001907           JUNCTION     0.92     1.71     8.00     0  02:37        1.70
  YS02001910           JUNCTION     0.71     1.50     8.01     0  02:34        1.49
  YS02001915           JUNCTION     0.50     1.29     8.01     0  02:37        1.29
  YS02001918           JUNCTION     0.25     0.94     8.01     0  02:34        0.94
  YS02001619           JUNCTION     1.28     1.61     8.54     0  02:02        1.47
  YS02001629           JUNCTION     1.64     1.85     8.40     0  02:03        1.84
  YS02001641           JUNCTION     1.74     1.96     8.40     0  02:09        1.93
  YS02001644           JUNCTION     1.74     1.92     8.35     0  02:02        1.92
  YS02001652           JUNCTION     1.58     2.16     8.76     0  02:02        1.92
  YS02001655           JUNCTION     1.34     2.20     9.05     0  01:57        1.72
  YS02001920           JUNCTION     0.34     1.00     8.01     0  02:35        1.00
  YS02001923           JUNCTION     0.18     0.75     8.01     0  02:34        0.74
  YS02001926           JUNCTION     0.23     0.57     8.01     0  02:35        0.55
  YS02001929           JUNCTION     0.12     0.32     8.01     0  02:35        0.32
  YS02001658           JUNCTION     1.06     2.30     9.44     0  02:03        1.47
  YS02001661           JUNCTION     0.82     2.46     9.86     0  02:24        1.25
  YS02001664           JUNCTION     0.35     0.57     8.50     0  02:20        0.56
  YS02001622           JUNCTION     1.30     1.62     8.52     0  02:03        1.49
  YS02001633           JUNCTION     1.73     2.00     8.46     0  02:09        1.93
  YS02001649           JUNCTION     1.78     2.05     8.44     0  02:02        2.05
  YS02001757           JUNCTION     1.90     2.19     8.45     0  02:09        2.16
  YS02001895           JUNCTION     0.48     1.28     8.02     0  02:38        1.26
  YS02001625           JUNCTION     1.59     1.78     8.38     0  02:03        1.78
  YS02163301           JUNCTION     1.67     1.93     8.44     0  02:10        1.87
  YS02163601           JUNCTION     1.78     2.05     8.45     0  02:09        1.98
  YS02164001           JUNCTION     1.72     1.97     8.43     0  02:09        1.91
  YS02001647           JUNCTION     1.56     1.85     8.46     0  02:02        1.79
  YSB1154              JUNCTION     0.27     0.45     9.51     0  01:40        0.45
  YSB6556              JUNCTION     0.16     0.34     9.51     0  01:40        0.34
  YSB1174              JUNCTION     0.22     0.40     9.51     0  01:41        0.40
  YSB1171              JUNCTION     0.42     0.61     9.51     0  01:40        0.61
  YS02006553           JUNCTION     0.92     1.71     7.99     0  02:34        1.70
  YS02006561           JUNCTION     0.29     0.89     7.55     0  02:33        0.88
  YS02006556           JUNCTION     0.89     1.66     7.97     0  02:34        1.65
  YS02006558           JUNCTION     0.93     1.69     7.96     0  02:33        1.68
  YS02001783           JUNCTION     0.51     1.31     7.45     0  02:34        1.29
  YS02001784           JUNCTION     0.53     1.35     7.42     0  02:18        1.26
  YS02001786           JUNCTION     0.46     1.40     7.43     0  02:18        1.14
  YS02001788           JUNCTION     0.39     1.70     7.68     0  02:18        1.04
  YS02001790           JUNCTION     0.48     1.61     7.25     0  02:17        1.23
  YS02001791           JUNCTION     0.42     1.32     6.79     0  02:18        1.24
  YS02001793           JUNCTION     0.52     1.80     6.63     0  02:38        1.79
  WS02004139           JUNCTION     0.57     0.67     5.58     0  02:16        0.67
  WSC                  OUTFALL      0.31     0.38     1.05     0  02:15        0.38
  3                    OUTFALL      0.15     0.23     6.23     0  00:00        0.21
  4                    OUTFALL      0.06     0.12     7.12     0  03:05        0.12
  5                    OUTFALL      0.00     0.00     5.00     0  00:00        0.00
  JK-storage           STORAGE      1.87     5.80     6.60     0  02:19        5.80
  CC-storage           STORAGE      1.12     1.40     8.40     0  02:47        1.40
  XR-storage           STORAGE      7.67     7.72     5.72     0  00:51        7.72
  
  
  *******************
  Node Inflow Summary
  *******************
  
  -------------------------------------------------------------------------------------------------
                                  Maximum  Maximum                  Lateral       Total        Flow
                                  Lateral    Total  Time of Max      Inflow      Inflow     Balance
                                   Inflow   Inflow   Occurrence      Volume      Volume       Error
  Node                 Type           LPS      LPS  days hr:min    10^6 ltr    10^6 ltr     Percent
  -------------------------------------------------------------------------------------------------
  WS02001211           JUNCTION      7.35   293.78     0  02:20       0.207        5.23       0.635
  WS02001212           JUNCTION      0.00   294.98     0  02:22           0        5.19       0.333
  WS02001213           JUNCTION      0.00   296.13     0  02:23           0        5.18       0.426
  WS02003069           JUNCTION      0.32   887.64     0  02:13     0.00902          15       0.208
  WS02003072           JUNCTION      0.00   887.58     0  02:14           0          15       0.250
  WS02003073           JUNCTION      1.82   889.54     0  02:15      0.0514          15       0.283
  WS02003060           JUNCTION     16.53   887.20     0  02:12       0.466          15       0.195
  WS02003066           JUNCTION      0.00   654.17     0  01:52           0        9.45       0.055
  WS02003059           JUNCTION      0.00   297.92     0  02:23           0        5.16       0.763
  WS02003067           JUNCTION      0.00   654.10     0  01:52           0        9.46       0.110
  WS02004401           JUNCTION      0.00   656.03     0  01:46           0        9.72       0.250
  WS02004402           JUNCTION      0.00   655.83     0  01:49           0         9.7       0.233
  WS02004403           JUNCTION      0.00   655.53     0  01:49           0        9.68       0.209
  WS02004404           JUNCTION      0.16   655.53     0  01:51     0.00457        9.66       0.154
  WS02004406           JUNCTION      0.00   655.55     0  01:49           0        9.62       0.374
  WS02004409           JUNCTION      0.00   654.96     0  01:49           0        9.58       0.206
  WS02004410           JUNCTION      0.00   654.44     0  01:51           0        9.56       0.229
  WS02004411           JUNCTION      0.00   654.25     0  01:51           0        9.54       0.231
  WS02004412           JUNCTION      0.00   654.11     0  01:52           0        9.52       0.245
  WS02004413           JUNCTION      0.00   654.17     0  01:52           0        9.49       0.358
  WS02004405           JUNCTION      0.04   655.20     0  01:49     0.00107        9.65       0.232
  WS02006109           JUNCTION      1.23   645.11     0  01:44      0.0347         9.8       0.244
  WS02006110           JUNCTION      0.00   645.05     0  01:44           0        9.78       0.223
  WS02006111           JUNCTION      0.00   679.51     0  01:45           0        9.74       0.053
  WS02006112           JUNCTION     14.90   663.43     0  01:45      0.0621         9.8       0.312
  WS02006113           JUNCTION      0.00   647.57     0  01:45           0        9.76       0.122
  WS02006115           JUNCTION      0.00   665.20     0  01:45           0        9.77       0.248
  WS02006116           JUNCTION      0.00   657.79     0  01:45           0        9.75       0.235
  WS02006230           JUNCTION     10.28   402.35     0  04:31        0.29        7.95       0.217
  WS02006231           JUNCTION      0.00   392.03     0  04:31           0        7.67       0.155
  WS02006232           JUNCTION      0.00   392.03     0  04:31           0        7.69       0.231
  WS02006234           JUNCTION      0.00   392.02     0  04:31           0         7.7       0.136
  WS02006235           JUNCTION      0.00   392.02     0  04:31           0        7.73       0.157
  WS02006238           JUNCTION      0.00   311.29     0  07:50           0        5.53       0.165
  WS02006240           JUNCTION      0.00   311.55     0  06:41           0        5.54       0.284
  WS02006242           JUNCTION      0.00   315.78     0  03:01           0        5.55       0.345
  WS02006243           JUNCTION      0.00   336.53     0  03:01           0        5.56       0.189
  WS02006245           JUNCTION      0.00   343.44     0  03:01           0        5.57       0.241
  WS02006247           JUNCTION      0.00   350.92     0  03:00           0        5.58       0.193
  WS02006248           JUNCTION      0.00   358.65     0  03:00           0        5.59       0.142
  WS02006249           JUNCTION      0.00   424.95     0  03:04           0        6.97       0.209
  WS02006239           JUNCTION      0.00   311.28     0  07:48           0        5.53       0.264
  WS02006251           JUNCTION      0.08   425.74     0  03:01     0.00217        6.99       0.203
  WS02006252           JUNCTION      0.00   400.00     0  03:00           0        6.63       0.008
  WS02006253           JUNCTION      2.03    76.41     0  01:43     0.00803       0.367       2.326
  WS02006256           JUNCTION      0.00   600.00     0  00:00           0        9.68       0.026
  WS02004138           JUNCTION      0.00   285.00     0  02:30           0        5.04       0.064
  WS02004407           JUNCTION      0.00   655.11     0  01:49           0        9.59       0.092
  WS02006228           JUNCTION      0.00   643.90     0  01:44           0        9.78       0.173
  WS02006229           JUNCTION      0.00   644.93     0  01:41           0         9.8       0.140
  WS02006280           JUNCTION      0.00   366.28     0  01:42           0        1.87       0.003
  WS02006284           JUNCTION      0.10   366.31     0  01:42      0.0027        1.87       0.024
  WS02006287           JUNCTION      0.00   366.22     0  01:42           0        1.87       0.038
  WSF200               JUNCTION      0.00   654.21     0  01:53           0        9.44       0.057
  HS02004901           JUNCTION     18.12    18.12     0  01:36      0.0747      0.0749       2.401
  HS02004881           JUNCTION      7.67    74.61     0  01:43      0.0326       0.352       0.086
  HS02004876           JUNCTION     13.40    67.33     0  01:43      0.0628        0.32       0.168
  HS02004870           JUNCTION     14.05    54.07     0  01:43      0.0618       0.257       0.041
  HS02004862           JUNCTION     12.60    40.55     0  01:44      0.0678       0.196       0.087
  HS02004856           JUNCTION     10.50    27.98     0  01:43      0.0465       0.129       1.122
  HS02004852           JUNCTION      0.00    17.93     0  01:51           0      0.0829       0.064
  HS02004848           JUNCTION     27.80    27.80     0  01:53       0.149       0.149       0.029
  HS02004842           JUNCTION      0.00    10.09     0  01:58           0      0.0794      19.594
  HS02004837           JUNCTION     29.79    38.22     0  01:51       0.287       0.353       0.230
  HS02004830           JUNCTION      0.15    38.36     0  01:51     0.00423       0.344       0.360
  HS02004824           JUNCTION     33.49    71.74     0  01:54       0.195       0.538       0.100
  HS02004817           JUNCTION      0.60    72.33     0  01:54      0.0169       0.554       3.102
  HS02004807           JUNCTION     26.14    95.63     0  01:52       0.114       0.651       0.672
  HS02004802           JUNCTION      0.00    95.92     0  01:53           0       0.649       0.615
  HS02004799           JUNCTION     20.64   230.90     0  01:40      0.0921        1.05       0.258
  HS02004792           JUNCTION     88.99   210.32     0  01:39       0.391       0.955       0.041
  HS02004788           JUNCTION     29.98   122.04     0  01:40       0.175       0.565       0.068
  HS02004785           JUNCTION      0.15    92.14     0  01:39     0.00423       0.391       0.126
  HS02004777           JUNCTION      0.03    92.19     0  01:38    0.000846       0.391       1.344
  HS02004770           JUNCTION     74.74    92.54     0  01:38        0.32       0.393       0.790
  HS02004480           JUNCTION      0.00   273.94     0  01:41           0        1.24       0.088
  HS02004479           JUNCTION      0.00    43.16     0  01:41           0       0.201       0.365
  HS02004478           JUNCTION      0.00   366.17     0  01:42           0        1.87       0.019
  YS02001745           JUNCTION    221.95   360.19     0  02:07        2.35        2.35       0.309
  YS02001748           JUNCTION      0.04   554.84     0  02:08     0.00127        2.35       0.842
  YS02001751           JUNCTION      0.01   428.30     0  01:59     0.00031        2.32       1.029
  YS02001754           JUNCTION      0.26   238.54     0  02:08     0.00733         2.3       1.060
  YS02001762           JUNCTION      0.00   276.91     0  02:11           0        2.08       1.017
  YS02001765           JUNCTION      0.00   275.90     0  02:11           0        2.08       1.174
  YS02001767           JUNCTION      0.54   274.95     0  02:11      0.0151         2.1       1.717
  YS02001770           JUNCTION    273.83   433.84     0  02:52        2.63        2.79       1.135
  YS02001774           JUNCTION      0.00   434.32     0  02:52           0       0.846       3.033
  YS02001779           JUNCTION      0.01   434.17     0  02:52    0.000141       0.814       1.891
  YS02001882           JUNCTION      0.00    16.40     0  02:20           0      0.0185      12.542
  YS02001884           JUNCTION      0.00    35.44     0  02:19           0      0.0553      11.526
  YS02001759           JUNCTION    262.15   538.29     0  02:13        2.42        4.31       0.529
  YS02001887           JUNCTION    333.12   338.29     0  02:20        2.79        2.82       0.288
  YS02001890           JUNCTION      0.00   335.99     0  02:22           0        2.77       0.318
  YS02001898           JUNCTION      0.00   337.65     0  02:24           0        2.76       0.095
  YS02001901           JUNCTION      0.00   339.54     0  02:23           0        2.76       0.239
  YS02001904           JUNCTION      0.00   337.22     0  02:23           0        2.76       0.215
  YS02001907           JUNCTION      0.00   609.01     0  02:38           0        6.14       0.385
  YS02001910           JUNCTION      0.00   319.92     0  03:05           0        3.39       0.337
  YS02001915           JUNCTION    195.26   316.18     0  02:52        1.97         3.4       0.161
  YS02001918           JUNCTION      0.00   152.52     0  02:49           0        1.43       0.123
  YS02001619           JUNCTION    191.04   191.04     0  02:29        1.95        1.95       0.610
  YS02001629           JUNCTION      0.00   226.46     0  02:00           0        1.78       1.580
  YS02001641           JUNCTION      0.00   400.59     0  02:04           0           4       0.525
  YS02001644           JUNCTION    211.51  1133.57     0  02:51        2.26        7.56       0.344
  YS02001652           JUNCTION      0.00   300.74     0  02:04           0        2.04       1.104
  YS02001655           JUNCTION      0.15   463.89     0  01:57     0.00434        2.07       1.204
  YS02001920           JUNCTION      2.87   145.19     0  02:50      0.0809        1.44       0.196
  YS02001923           JUNCTION      0.04   118.10     0  02:50     0.00106        1.36       0.044
  YS02001926           JUNCTION      0.05   138.30     0  02:51     0.00147        1.36       0.233
  YS02001929           JUNCTION    105.11   105.11     0  02:59        1.36        1.36       0.036
  YS02001658           JUNCTION      0.00   642.96     0  02:04           0         2.1       0.908
  YS02001661           JUNCTION      0.00   638.33     0  02:21           0        2.88      -0.292
  YS02001664           JUNCTION    239.63   374.59     0  02:20        2.08        2.87       0.107
  YS02001622           JUNCTION      0.00   196.46     0  02:01           0        1.94       1.636
  YS02001633           JUNCTION    215.43   400.67     0  02:04        2.33        4.06       0.788
  YS02001649           JUNCTION      0.00   844.33     0  02:17           0        5.11       0.724
  YS02001757           JUNCTION      0.00  1571.69     0  02:18           0        10.1       0.901
  YS02001895           JUNCTION      0.00   337.44     0  02:20           0        2.77       0.183
  YS02001625           JUNCTION      0.00   226.36     0  02:00           0        1.91       2.094
  YS02163301           JUNCTION      0.00   212.53     0  02:04           0        1.77       1.358
  YS02163601           JUNCTION      0.11   400.84     0  02:04      0.0031        4.02       0.747
  YS02164001           JUNCTION      0.00   400.77     0  02:04           0           4       0.496
  YS02001647           JUNCTION      0.00   603.09     0  02:19           0         3.9       0.720
  YSB1154              JUNCTION     23.84    23.84     0  01:41       0.112       0.113       1.299
  YSB6556              JUNCTION      0.00    24.02     0  01:41           0       0.113       1.116
  YSB1174              JUNCTION     19.99    19.99     0  01:36       0.081      0.0815       1.597
  YSB1171              JUNCTION      0.00    43.60     0  01:40           0         0.2       3.266
  YS02006553           JUNCTION      0.00   609.03     0  02:38           0        6.13       0.243
  YS02006561           JUNCTION      0.00   884.79     0  02:17           0        8.64       0.007
  YS02006556           JUNCTION      0.00   608.96     0  02:38           0        6.14       0.180
  YS02006558           JUNCTION    286.64   884.78     0  02:17        2.56        8.67       0.059
  YS02001783           JUNCTION      0.00   883.63     0  02:17           0        8.64       0.025
  YS02001784           JUNCTION      1.06   884.59     0  02:17      0.0299        8.66       0.041
  YS02001786           JUNCTION      0.06   883.38     0  02:16     0.00159        8.66       0.037
  YS02001788           JUNCTION      0.07   882.47     0  02:34       0.002        8.66       0.022
  YS02001790           JUNCTION      0.15   882.62     0  02:35     0.00437        8.66       0.028
  YS02001791           JUNCTION      0.00   923.49     0  02:14           0        8.66       0.012
  YS02001793           JUNCTION      0.00   883.27     0  02:14           0        8.66       0.004
  WS02004139           JUNCTION      0.32   285.32     0  02:13     0.00905        5.05       0.621
  WSC                  OUTFALL       0.00   889.67     0  02:15           0        14.9       0.000
  3                    OUTFALL       0.00   597.65     0  00:00           0        7.46       0.000
  4                    OUTFALL       0.00   140.80     0  03:05           0        1.37       0.000
  5                    OUTFALL       0.00     0.00     0  00:00           0           0       0.000 ltr
  JK-storage           STORAGE       0.00   882.79     0  02:35           0        8.81     -16.317
  CC-storage           STORAGE       0.00  1571.57     0  02:18           0         9.5       0.424
  XR-storage           STORAGE     560.10   560.10     0  02:30        9.63        10.2       0.001
  
  
  **********************
  Node Surcharge Summary
  **********************
  
  Surcharging occurs when water rises above the top of the highest conduit.
  ---------------------------------------------------------------------
                                               Max. Height   Min. Depth
                                   Hours       Above Crown    Below Rim
  Node                 Type      Surcharged         Meters       Meters
  ---------------------------------------------------------------------
  WS02004404           JUNCTION        0.46          0.051        2.729
  WS02004406           JUNCTION        0.36          0.024        2.426
  WS02004405           JUNCTION        0.41          0.039        2.761
  WS02006109           JUNCTION        4.61          0.276        1.544
  WS02006110           JUNCTION        0.59          0.111        1.739
  WS02006112           JUNCTION        0.80          0.193        1.487
  WS02006230           JUNCTION        0.44          0.150        1.420
  WS02006231           JUNCTION        0.49          0.201        1.329
  WS02006232           JUNCTION        4.37          0.301        1.179
  WS02006234           JUNCTION        0.87          0.306        0.934
  WS02006235           JUNCTION        4.02          0.248        1.042
  WS02006238           JUNCTION        4.15          0.244        1.186
  WS02006240           JUNCTION        1.17          0.227        1.163
  WS02006242           JUNCTION        3.93          0.743        0.077
  WS02006239           JUNCTION        2.65          0.227        1.063
  WS02006252           JUNCTION        3.95          0.193        0.907
  WS02006256           JUNCTION        0.01          1.050        0.000
  WS02006228           JUNCTION        4.54          0.328        1.872
  YS02001748           JUNCTION        5.08          1.190        0.000
  YS02001751           JUNCTION        5.79          1.200        0.000
  YS02001754           JUNCTION        5.97          1.049        0.101
  YS02001762           JUNCTION        6.14          1.033        0.117
  YS02001765           JUNCTION        6.13          0.981        0.119
  YS02001767           JUNCTION        6.12          0.936        0.094
  YS02001770           JUNCTION        6.11          0.915        0.005
  YS02001774           JUNCTION        6.14          1.006        0.044
  YS02001779           JUNCTION        5.95          0.680        0.000
  YS02001882           JUNCTION        0.72          0.315        0.515
  YS02001884           JUNCTION        0.77          0.358        0.512
  YS02001759           JUNCTION        6.15          1.079        0.131
  YS02001887           JUNCTION        0.94          0.448        0.502
  YS02001890           JUNCTION        1.03          0.480        0.280
  YS02001898           JUNCTION        0.64          0.247        0.493
  YS02001901           JUNCTION        0.84          0.402        0.468
  YS02001904           JUNCTION        0.81          0.373        0.477
  YS02001907           JUNCTION        1.70          0.705        0.245
  YS02001910           JUNCTION        1.11          0.500        0.600
  YS02001915           JUNCTION        0.70          0.294        0.706
  YS02001619           JUNCTION        5.78          0.610        0.000
  YS02001629           JUNCTION        5.80          0.470        0.000
  YS02001641           JUNCTION        6.13          0.960        0.140
  YS02001644           JUNCTION        6.13          0.920        0.000
  YS02001652           JUNCTION        6.03          1.130        0.000
  YS02001655           JUNCTION        5.80          1.200        0.000
  YS02001658           JUNCTION        5.16          1.300        0.000
  YS02001661           JUNCTION        0.23          1.390        0.000
  YS02001622           JUNCTION        5.82          0.620        0.000
  YS02001633           JUNCTION        6.12          0.983        0.077
  YS02001649           JUNCTION        6.14          1.050        0.000
  YS02001757           JUNCTION        6.19          1.192        0.018
  YS02001895           JUNCTION        0.67          0.276        0.474
  YS02001625           JUNCTION        6.09          0.780        0.000
  YS02163301           JUNCTION        6.11          0.927        0.103
  YS02163601           JUNCTION        6.15          1.049        0.031
  YS02164001           JUNCTION        6.12          0.968        0.132
  YS02001647           JUNCTION        6.06          0.852        0.048
  YS02006553           JUNCTION        1.75          0.707        0.483
  YS02006561           JUNCTION        0.39          0.089        1.061
  YS02006556           JUNCTION        1.42          0.618        0.732
  YS02006558           JUNCTION        1.37          0.595        0.805
  YS02001783           JUNCTION        1.21          0.507        1.093
  YS02001784           JUNCTION        1.17          0.549        0.941
  YS02001786           JUNCTION        1.13          0.604        0.826
  YS02001788           JUNCTION        1.13          0.898        0.582
  YS02001790           JUNCTION        1.33          0.805        0.352
  YS02001791           JUNCTION        1.38          0.523        1.397
  YS02001793           JUNCTION        1.50          0.801        1.799
  
  
  *********************
  Node Flooding Summary
  *********************
  
  Flooding refers to all water that overflows a node, whether it ponds or not.
  --------------------------------------------------------------------------
                                                             Total   Maximum
                                 Maximum   Time of Max       Flood    Ponded
                        Hours       Rate    Occurrence      Volume     Depth
  Node                 Flooded       LPS   days hr:min    10^6 ltr    Meters
  --------------------------------------------------------------------------
  WS02006256              0.01    406.11      0  00:00       0.001     0.000
  YS02001748              0.01    158.75      0  02:09       0.000     0.000
  YS02001751              0.01    179.10      0  02:00       0.000     0.000
  YS02001779              2.11    434.16      0  02:52       0.793     0.000
  YS02001619              0.01     31.37      0  02:06       0.000     0.000
  YS02001629              0.01     35.53      0  02:05       0.001     0.000
  YS02001644              4.27   1133.50      0  02:51       4.944     0.000
  YS02001652              0.01     21.06      0  02:24       0.000     0.000
  YS02001655              0.01    206.21      0  02:02       0.000     0.000
  YS02001658              0.01    256.59      0  02:04       0.001     0.000
  YS02001661              0.01    170.21      0  02:26       0.001     0.000
  YS02001622              0.01     40.59      0  02:05       0.000     0.000
  YS02001649              0.11     49.55      0  02:28       0.006     0.000
  YS02001625              0.88     48.36      0  02:30       0.102     0.000
  JK-storage              1.12    282.68      0  02:35       0.845     0.000
  XR-storage              6.97    415.76      0  02:00       4.259     0.000
  
  
  **********************
  Storage Volume Summary
  **********************
  
  --------------------------------------------------------------------------------------------------
                         Average     Avg  Evap Exfil       Maximum     Max    Time of Max    Maximum
                          Volume    Pcnt  Pcnt  Pcnt        Volume    Pcnt     Occurrence    Outflow
  Storage Unit           1000 m3    Full  Loss  Loss       1000 m3    Full    days hr:min        LPS
  --------------------------------------------------------------------------------------------------
  JK-storage               0.094      32     0     0         0.291     100       0  02:19     600.00
  CC-storage               3.116      20     0     0         3.910      25       0  02:47     400.00
  XR-storage               0.920      99     0     0         0.926     100       0  00:51     285.00
  
  
  ***********************
  Outfall Loading Summary
  ***********************
  
  -----------------------------------------------------------
                         Flow       Avg       Max       Total
                         Freq      Flow      Flow      Volume
  Outfall Node           Pcnt       LPS       LPS    10^6 ltr
  -----------------------------------------------------------
  WSC                   99.99    614.64    889.67      14.940
  3                     97.04    344.87    597.65       7.458
  4                     65.20     88.94    140.80       1.371
  5                      0.00      0.00      0.00       0.000
  -----------------------------------------------------------
  System                65.56   1048.45   1420.07      23.769
  
  
  ********************
  Link Flow Summary
  ********************
  
  -----------------------------------------------------------------------------
                                 Maximum  Time of Max   Maximum    Max/    Max/
                                  |Flow|   Occurrence   |Veloc|    Full    Full
  Link                 Type          LPS  days hr:min     m/sec    Flow   Depth
  -----------------------------------------------------------------------------
  WS02003066WSF200     CONDUIT    654.21     0  01:53      2.92    0.11    0.25
  WS02006287WS02006284 CONDUIT    366.21     0  01:42      1.96    0.17    0.29
  WS02006284WS02006280 CONDUIT    366.28     0  01:42      2.20    0.15    0.26
  WS02006280WS02006229 CONDUIT    366.28     0  01:42      3.55    0.08    0.19
  WS02006229WS02006228 CONDUIT    643.90     0  01:44      1.28    2.13    1.00
  WS02006256WS02006235 CONDUIT    177.52     0  00:01      2.73    1.88    1.00
  WS02006253WS02006251 CONDUIT     86.19     0  01:43      0.58    0.26    0.94
  WS02006252WS02006251 CONDUIT    400.40     0  07:24      3.19    1.47    1.00
  WS02006251WS02006249 CONDUIT    424.95     0  03:04      1.21    1.23    0.90
  WS02006249WS02006248 CONDUIT    358.65     0  03:00      1.20    1.96    0.86
  WS02006248WS02006247 CONDUIT    350.92     0  03:00      1.17    0.76    0.91
  WS02006247WS02006245 CONDUIT    343.44     0  03:01      1.13    2.72    0.95
  WS02006245WS02006243 CONDUIT    336.53     0  03:01      1.17    1.00    0.97
  WS02006243WS02006242 CONDUIT    315.78     0  03:01      0.97    0.67    1.00
  WS02006242WS02006240 CONDUIT    311.55     0  06:41      0.82    1.24    1.00
  WS02006240WS02006239 CONDUIT    311.28     0  07:48      0.81    0.98    1.00
  WS02006239WS02006238 CONDUIT    311.29     0  07:50      0.81    1.00    1.00
  WS02006238WS02006235 CONDUIT    311.29     0  07:50      1.32    0.69    1.00
  WS02006235WS02006234 CONDUIT    392.02     0  04:31      1.02    4.14    1.00
  WS02006234WS02006232 CONDUIT    392.03     0  04:31      1.17    0.79    1.00
  WS02006232WS02006231 CONDUIT    392.03     0  04:31      1.06    0.82    1.00
  WS02006231WS02006230 CONDUIT    392.07     0  04:31      1.32    5.95    1.00
  WS02006230WS02006229 CONDUIT    402.41     0  04:31      1.05    8.96    1.00
  WS02006228WS02006109 CONDUIT    643.88     0  01:44      1.28    2.81    1.00
  WS02006116WS02004401 CONDUIT    656.03     0  01:46      0.86    0.90    0.96
  WS02006115WS02006116 CONDUIT    657.79     0  01:45      0.98    0.84    0.88
  WS02006113WS02006111 CONDUIT    679.51     0  01:45      2.62    0.81    0.52
  WS02006112WS02006115 CONDUIT    665.20     0  01:45      0.92    0.39    0.93
  WS02006111WS02006112 CONDUIT    649.80     0  01:45      1.73    0.31    0.71
  WS02006110WS02006113 CONDUIT    647.57     0  01:45      1.48    0.59    0.82
  WS02006109WS02006110 CONDUIT    645.05     0  01:44      1.28    1.24    1.00
  WS02004411WS02004412 CONDUIT    654.11     0  01:52      1.02    0.93    0.76
  WS02004401WS02004402 CONDUIT    655.83     0  01:49      0.84    0.79    0.97
  WS02004413WS02003067 CONDUIT    654.10     0  01:52      1.24    0.28    0.64
  WS02004412WS02004413 CONDUIT    654.17     0  01:52      0.93    0.44    0.83
  WS02004410WS02004411 CONDUIT    654.25     0  01:51      1.03    0.89    0.76
  WS02004409WS02004410 CONDUIT    654.44     0  01:51      1.07    0.85    0.75
  WS02004407WS02004409 CONDUIT    654.96     0  01:49      1.62    0.23    0.54
  WS02004406WS02004407 CONDUIT    655.11     0  01:49      1.18    0.29    0.66
  WS02004405WS02004406 CONDUIT    655.55     0  01:49      0.83    1.29    1.00
  WS02004404WS02004405 CONDUIT    655.17     0  01:49      0.83    6.42    1.00
  WS02004403WS02004404 CONDUIT    655.37     0  01:51      0.84    0.47    0.99
  WS02004402WS02004403 CONDUIT    655.53     0  01:49      0.84    0.94    0.98
  WS02004139WS02001211 CONDUIT    286.43     0  02:20      0.53    0.36    0.54
  WS02004138WS02004139 CONDUIT    285.00     0  02:13      2.39    0.06    0.39
  WS02003067WS02003066 CONDUIT    654.17     0  01:52      1.35    0.21    0.44
  WS02001213WS02003059 CONDUIT    297.92     0  02:23      0.52    0.49    0.74
  WS02001212WS02001213 CONDUIT    296.13     0  02:23      1.15    0.46    0.42
  WS02001211WS02001212 CONDUIT    294.98     0  02:22      0.64    0.23    0.59
  WS02003072WS02003073 CONDUIT    887.72     0  02:15      1.69    1.92    0.47
  WS02003069WS02003072 CONDUIT    887.58     0  02:14      1.59    0.43    0.49
  WS02003060WS02003069 CONDUIT    887.32     0  02:13      1.84    0.35    0.44
  WS02003059WS02003060 CONDUIT    300.37     0  02:22      0.63    0.20    0.64
  HS02004901HS02004770 CONDUIT     17.82     0  01:38      0.06    0.07    0.40
  HS02004876HS02004881 CONDUIT     67.33     0  01:43      0.89    0.72    0.11
  HS02004870HS02004876 CONDUIT     54.05     0  01:43      0.61    0.04    0.13
  HS02004842HS02004848 CONDUIT     10.09     0  01:58      0.05    0.01    0.30
  HS02004837HS02004842 CONDUIT     10.33     0  02:00      0.41    0.01    0.31
  HS02004830HS02004837 CONDUIT     38.21     0  01:51      0.54    0.04    0.10
  HS02004824HS02004830 CONDUIT     38.37     0  01:52      0.57    0.05    0.10
  HS02004817HS02004824 CONDUIT     71.73     0  01:54      0.22    0.03    0.46
  HS02004770HS02004777 CONDUIT     92.16     0  01:38      0.32    0.17    0.41
  HS02004799HS02004480 CONDUIT    230.85     0  01:40      0.78    0.29    0.42
  HS02004792HS02004799 CONDUIT    210.29     0  01:40      0.89    0.13    0.34
  HS02004788HS02004792 CONDUIT    122.00     0  01:40      1.02    0.08    0.17
  HS02004785HS02004788 CONDUIT     92.09     0  01:40      0.67    0.69    0.20
  HS02004777HS02004785 CONDUIT     91.99     0  01:39      0.39    0.11    0.34
  HS02004480HS02004478 CONDUIT    273.64     0  01:41      1.21    1.15    0.32
  HS02004479HS02004480 CONDUIT     43.48     0  01:42      0.30    0.04    0.41
  HS02004862HS02004870 CONDUIT     40.54     0  01:45      0.62    0.04    0.09
  HS02004848HS02004852 CONDUIT     17.93     0  01:51      0.42    0.02    0.06
  HS02004856HS02004862 CONDUIT     27.96     0  01:44      0.46    0.03    0.09
  HS02004852HS02004856 CONDUIT     17.92     0  01:52      0.22    0.02    0.12
  HS02004802HS02004478 CONDUIT     96.20     0  01:53      0.42    0.08    0.34
  HS02004478WS02006287 CONDUIT    366.22     0  01:42      1.67    0.10    0.24
  HS02004817HS02004807 CONDUIT     72.77     0  01:55      0.17    0.04    0.61
  HS02004807HS02004802 CONDUIT     95.92     0  01:53      0.36    0.18    0.39
  YS02001759YS02001757 CONDUIT    538.87     0  02:13      0.69    0.38    1.00
  YS02001762YS02001759 CONDUIT    277.87     0  02:11      0.35    0.32    1.00
  YS02001765YS02001762 CONDUIT    276.91     0  02:11      0.35    0.26    1.00
  YS02001770YS02001767 CONDUIT    274.42     0  02:11      0.42    1.09    1.00
  YS02001774YS02001770 CONDUIT    434.32     0  02:52      0.55    0.28    1.00
  YS02001779YS02001774 CONDUIT    434.17     0  02:52      0.55    0.22    1.00
  YS02001649YS02001757 CONDUIT    844.65     0  02:17      1.08    0.51    1.00
  YS02001767YS02001765 CONDUIT    275.90     0  02:11      0.38    0.35    1.00
  YS02006561YS02001783 CONDUIT    883.63     0  02:17      2.15    0.46    1.00
  YS02001783YS02001784 CONDUIT    883.53     0  02:17      1.76    1.22    1.00
  YS02001784YS02001785 CONDUIT    883.33     0  02:16      1.88    2.06    1.00
  YS02001788YS02001790 CONDUIT    882.46     0  02:35      2.43    0.65    1.00
  YS02001790YS02001791 CONDUIT    923.49     0  02:14      3.04    1.00    1.00
  YS02001791YS02001793 CONDUIT    883.27     0  02:14      5.98    0.38    1.00
  YS02001910YS02001907 CONDUIT    319.96     0  03:05      0.49    0.18    1.00
  YS02001786YS02001788 CONDUIT    882.39     0  02:34      2.31    1.70    1.00
  YS02001915YS02001910 CONDUIT    319.92     0  03:05      0.58    0.16    1.00
  YS02001918YS02001915 CONDUIT    144.74     0  03:07      0.44    0.08    0.97
  YS02001923YS02001920 CONDUIT    142.32     0  02:50      0.68    0.06    0.87
  YS02001926YS02001923 CONDUIT    118.06     0  02:50      0.78    0.17    0.55
  YS02001929YS02001926 CONDUIT    138.25     0  02:51      0.83    0.07    0.43
  YS02001920YS02001918 CONDUIT    152.52     0  02:49      0.67    0.15    0.97
  YS02001629YS02163301 CONDUIT    212.53     0  02:04      0.27    0.26    1.00
  YS02001619YS02001622 CONDUIT    196.46     0  02:01      0.73    0.29    1.00
  YS02001622YS02001625 CONDUIT    226.36     0  02:00      0.36    0.12    1.00
  YS02001625YS02001629 CONDUIT    226.46     0  02:00      0.30    0.11    1.00
  YS02163301YS02001633 CONDUIT    212.59     0  02:04      0.27    0.20    1.00
  YS02163601YS02164001 CONDUIT    400.77     0  02:04      0.51    0.36    1.00
  YS02164001YS02001641 CONDUIT    400.59     0  02:04      0.51    0.55    1.00
  YS02001641YS02001644 CONDUIT    400.71     0  02:04      0.51    1.30    1.00
  YS02001647YS02001649 CONDUIT    603.47     0  02:19      0.77    0.32    1.00
  YS02006553YS02006556 CONDUIT    608.96     0  02:38      0.78    0.52    1.00
  YS02006556YS02006558 CONDUIT    609.08     0  02:38      0.78    0.48    1.00
  YSB6556YSB1171       CONDUIT     24.43     0  01:43      0.09    0.03    0.68
  YS02001907YS02006553 CONDUIT    609.03     0  02:38      0.68    0.72    1.00
  YS02006558YS02006561 CONDUIT    884.79     0  02:17      3.46    1.96    1.00
  YS02001633YS02163601 CONDUIT    400.73     0  02:04      0.51    0.42    1.00
  YS02001644YS02001647 CONDUIT    603.09     0  02:19      0.77    0.35    1.00
  YS02001745YS02001748 CONDUIT    554.80     0  02:08      1.64    0.21    0.95
  YS02001748YS02001751 CONDUIT    428.29     0  01:59      1.23    0.22    1.00
  YS02001751YS02001754 CONDUIT    238.28     0  02:08      1.05    0.11    1.00
  YS02001754YS02001757 CONDUIT    238.82     0  02:00      0.33    0.10    1.00
  YS02001882YS02001884 CONDUIT     16.40     0  02:20      0.15    0.02    1.00
  YS02001884YS02001887 CONDUIT     35.44     0  02:19      0.11    0.05    1.00
  YS02001890YS02001895 CONDUIT    337.44     0  02:20      0.47    0.16    1.00
  YS02001895YS02001898 CONDUIT    337.65     0  02:24      0.59    0.59    1.00
  YS02001898YS02001901 CONDUIT    339.54     0  02:23      0.52    0.22    1.00
  YS02001901YS02001904 CONDUIT    337.22     0  02:23      0.48    0.52    1.00
  YS02001904YS02001907 CONDUIT    337.03     0  02:23      0.43    0.12    1.00
  YS02001887YS02001890 CONDUIT    335.99     0  02:22      0.43    0.58    1.00
  YS02001652YS02001649 CONDUIT    300.94     0  02:04      0.61    0.15    1.00
  YS02001655YS02001652 CONDUIT    300.74     0  02:04      1.11    0.15    1.00
  YS02001658YS02001655 CONDUIT    463.74     0  01:57      1.42    0.20    1.00
  YS02001661YS02001658 CONDUIT    642.96     0  02:04      1.73    0.25    1.00
  YS02001664YS02001661 CONDUIT    638.33     0  02:21      1.63    0.20    0.73
  YSB1154YSB6556       CONDUIT     24.02     0  01:41      0.16    0.04    0.57
  YSB1174YSB1171       CONDUIT     20.02     0  01:36      0.07    0.03    0.68
  YSB1171HS02004479    CONDUIT     43.16     0  01:41      0.54    0.03    0.54
  HS02004881HS02006253 CONDUIT     74.61     0  01:43      2.03    0.01    0.25
  YS02001793JiankangQianchi CONDUIT    882.79     0  02:35     13.78    0.07    1.00
  YS02001757CaochengTiaoxuchi CONDUIT   1571.57     0  02:18      2.50    0.69    1.00
  WSF200WS02003060     CONDUIT    654.65     0  01:53      2.00    0.15    0.34
  1                    CONDUIT    889.67     0  02:15      3.22    0.31    0.38
  2                    CONDUIT    140.80     0  03:05      5.32    0.34    0.40
  3                    CONDUIT    597.65     0  00:00     10.05    0.95    0.86
  4                    CONDUIT      0.00     0  00:00      0.00    0.00    0.00
  CC-Pump-1            PUMP       200.00     0  03:00              1.00
  CC-Pump-2            PUMP       200.00     0  01:35              1.00
  JK-Pump-1            PUMP       300.00     0  00:00              1.00
  JK-Pump-2            PUMP       300.00     0  00:00              1.00
  XR-Pump-1            PUMP        95.00     0  02:10              1.00
  XR-Pump-2            PUMP        95.00     0  00:00              1.00
  XR-Pump-3            PUMP        95.00     0  02:40              1.00
  XR-Pump-4            PUMP        95.00     0  02:10              1.00
  
  
  ***************************
  Flow Classification Summary
  ***************************
  
  -------------------------------------------------------------------------------------
                      Adjusted    ---------- Fraction of Time in Flow Class ---------- 
                       /Actual         Up    Down  Sub   Sup   Up    Down  Norm  Inlet 
  Conduit               Length    Dry  Dry   Dry   Crit  Crit  Crit  Crit  Ltd   Ctrl  
  -------------------------------------------------------------------------------------
  WS02003066WSF200        1.00   0.06  0.00  0.00  0.00  0.94  0.00  0.00  0.67  0.00
  WS02006287WS02006284    1.00   0.03  0.01  0.00  0.58  0.38  0.00  0.00  0.72  0.00
  WS02006284WS02006280    1.00   0.03  0.00  0.00  0.00  0.00  0.00  0.97  0.00  0.00
  WS02006280WS02006229    1.00   0.03  0.00  0.00  0.00  0.00  0.00  0.97  0.00  0.00
  WS02006229WS02006228    1.00   0.00  0.00  0.00  0.99  0.00  0.00  0.01  0.00  0.00
  WS02006256WS02006235    1.00   0.00  0.00  0.00  1.00  0.00  0.00  0.00  0.00  0.00
  WS02006253WS02006251    1.00   0.02  0.01  0.00  0.97  0.00  0.00  0.00  0.00  0.00
  WS02006252WS02006251    1.00   0.05  0.00  0.00  0.00  0.00  0.95  0.00  0.00  0.00
  WS02006251WS02006249    1.00   0.00  0.00  0.00  1.00  0.00  0.00  0.00  0.19  0.00
  WS02006249WS02006248    1.00   0.00  0.01  0.00  0.91  0.00  0.07  0.00  0.00  0.00
  WS02006248WS02006247    1.00   0.01  0.00  0.00  0.98  0.00  0.00  0.01  0.08  0.00
  WS02006247WS02006245    1.00   0.02  0.00  0.00  0.97  0.00  0.00  0.01  0.00  0.00
  WS02006245WS02006243    1.00   0.01  0.00  0.00  0.96  0.00  0.00  0.02  0.01  0.00
  WS02006243WS02006242    1.00   0.01  0.00  0.00  0.99  0.00  0.00  0.00  0.16  0.00
  WS02006242WS02006240    1.00   0.00  0.00  0.00  0.99  0.00  0.00  0.00  0.00  0.00
  WS02006240WS02006239    1.00   0.00  0.00  0.00  0.97  0.00  0.00  0.02  0.01  0.00
  WS02006239WS02006238    1.00   0.00  0.00  0.00  1.00  0.00  0.00  0.00  0.00  0.00
  WS02006238WS02006235    1.00   0.00  0.00  0.00  1.00  0.00  0.00  0.00  0.00  0.00
  WS02006235WS02006234    1.00   0.00  0.00  0.00  0.97  0.00  0.03  0.00  0.00  0.00
  WS02006234WS02006232    1.00   0.00  0.00  0.00  1.00  0.00  0.00  0.00  0.00  0.00
  WS02006232WS02006231    1.00   0.00  0.00  0.00  0.99  0.00  0.00  0.00  0.00  0.00
  WS02006231WS02006230    1.00   0.00  0.00  0.00  0.85  0.00  0.14  0.00  0.00  0.00
  WS02006230WS02006229    1.00   0.00  0.00  0.00  0.99  0.00  0.00  0.01  0.01  0.00
  WS02006228WS02006109    1.00   0.00  0.00  0.00  1.00  0.00  0.00  0.00  0.00  0.00
  WS02006116WS02004401    1.00   0.02  0.00  0.00  0.98  0.00  0.00  0.00  0.00  0.00
  WS02006115WS02006116    1.00   0.02  0.00  0.00  0.97  0.00  0.00  0.01  0.01  0.00
  WS02006113WS02006111    1.00   0.01  0.00  0.00  0.00  0.99  0.00  0.00  0.08  0.00
  WS02006112WS02006115    1.00   0.01  0.00  0.00  0.98  0.00  0.00  0.00  0.00  0.00
  WS02006111WS02006112    1.00   0.01  0.00  0.00  0.98  0.00  0.00  0.00  0.93  0.00
  WS02006110WS02006113    1.00   0.01  0.00  0.00  0.99  0.00  0.00  0.00  0.00  0.00
  WS02006109WS02006110    1.00   0.00  0.01  0.00  0.99  0.00  0.00  0.00  0.00  0.00
  WS02004411WS02004412    1.00   0.04  0.00  0.00  0.96  0.00  0.00  0.00  0.00  0.00
  WS02004401WS02004402    1.00   0.02  0.00  0.00  0.98  0.00  0.00  0.00  0.00  0.00
  WS02004413WS02003067    1.00   0.04  0.01  0.00  0.00  0.00  0.95  0.00  0.00  0.00
  WS02004412WS02004413    1.00   0.04  0.00  0.00  0.95  0.00  0.00  0.00  0.00  0.00
  WS02004410WS02004411    1.00   0.04  0.00  0.00  0.96  0.00  0.00  0.00  0.00  0.00
  WS02004409WS02004410    1.00   0.04  0.00  0.00  0.96  0.00  0.00  0.00  0.00  0.00
  WS02004407WS02004409    1.00   0.04  0.00  0.00  0.95  0.01  0.00  0.00  0.81  0.00
  WS02004406WS02004407    1.00   0.00  0.04  0.00  0.96  0.00  0.00  0.00  0.00  0.00
  WS02004405WS02004406    1.00   0.00  0.00  0.00  1.00  0.00  0.00  0.00  0.02  0.00
  WS02004404WS02004405    1.00   0.00  0.00  0.00  1.00  0.00  0.00  0.00  0.00  0.00
  WS02004403WS02004404    1.00   0.00  0.02  0.00  0.98  0.00  0.00  0.00  0.02  0.00
  WS02004402WS02004403    1.00   0.02  0.00  0.00  0.98  0.00  0.00  0.00  0.00  0.00
  WS02004139WS02001211    1.00   0.00  0.00  0.00  0.99  0.00  0.01  0.00  0.00  0.00
  WS02004138WS02004139    1.00   0.00  0.00  0.00  0.99  0.01  0.00  0.00  1.00  0.00
  WS02003067WS02003066    1.00   0.05  0.01  0.00  0.94  0.00  0.00  0.00  0.00  0.00
  WS02001213WS02003059    1.00   0.00  0.01  0.00  0.99  0.00  0.00  0.00  0.00  0.00
  WS02001212WS02001213    1.00   0.01  0.00  0.00  0.93  0.00  0.06  0.00  0.00  0.00
  WS02001211WS02001212    1.00   0.00  0.01  0.00  0.99  0.00  0.00  0.00  0.00  0.00
  WS02003072WS02003073    1.00   0.00  0.00  0.00  0.00  0.00  0.00  1.00  0.00  0.00
  WS02003069WS02003072    1.00   0.00  0.00  0.00  0.99  0.01  0.00  0.00  0.19  0.00
  WS02003060WS02003069    1.00   0.00  0.00  0.00  0.98  0.02  0.00  0.00  0.17  0.00
  WS02003059WS02003060    1.00   0.00  0.00  0.00  1.00  0.00  0.00  0.00  0.02  0.00
  HS02004901HS02004770    1.00   0.03  0.00  0.00  0.97  0.00  0.00  0.00  0.00  0.00
  HS02004876HS02004881    1.00   0.01  0.00  0.00  0.90  0.09  0.00  0.00  0.00  0.00
  HS02004870HS02004876    1.00   0.01  0.00  0.00  0.99  0.00  0.00  0.00  0.95  0.00
  HS02004842HS02004848    1.00   0.00  0.03  0.00  0.97  0.00  0.00  0.00  0.59  0.00
  HS02004837HS02004842    1.00   0.00  0.00  0.00  0.99  0.01  0.00  0.00  0.11  0.00
  HS02004830HS02004837    1.00   0.00  0.00  0.00  1.00  0.00  0.00  0.00  0.99  0.00
  HS02004824HS02004830    1.00   0.00  0.00  0.00  1.00  0.00  0.00  0.00  0.00  0.00
  HS02004817HS02004824    1.00   0.00  0.00  0.00  1.00  0.00  0.00  0.00  1.00  0.00
  HS02004770HS02004777    1.00   0.00  0.03  0.00  0.97  0.00  0.00  0.00  0.02  0.00
  HS02004799HS02004480    1.00   0.00  0.01  0.00  0.97  0.00  0.02  0.00  0.00  0.00
  HS02004792HS02004799    1.00   0.00  0.00  0.00  0.99  0.01  0.00  0.00  0.98  0.00
  HS02004788HS02004792    1.00   0.00  0.00  0.00  0.99  0.01  0.00  0.00  0.98  0.00
  HS02004785HS02004788    1.00   0.00  0.00  0.00  1.00  0.00  0.00  0.00  0.00  0.00
  HS02004777HS02004785    1.00   0.00  0.00  0.00  1.00  0.00  0.00  0.00  0.12  0.00
  HS02004480HS02004478    1.00   0.03  0.00  0.00  0.63  0.00  0.00  0.33  0.00  0.00
  HS02004479HS02004480    1.00   0.02  0.00  0.00  0.98  0.00  0.00  0.00  0.11  0.00
  HS02004862HS02004870    1.00   0.00  0.00  0.00  1.00  0.00  0.00  0.00  0.03  0.00
  HS02004848HS02004852    1.00   0.03  0.00  0.00  0.97  0.00  0.00  0.00  0.78  0.00
  HS02004856HS02004862    1.00   0.00  0.04  0.00  0.96  0.00  0.00  0.00  0.83  0.00
  HS02004852HS02004856    1.00   0.03  0.00  0.00  0.97  0.00  0.00  0.00  0.86  0.00
  HS02004802HS02004478    1.00   0.03  0.00  0.00  0.97  0.00  0.00  0.00  0.02  0.00
  HS02004478WS02006287    1.00   0.04  0.00  0.00  0.74  0.22  0.00  0.00  0.69  0.00
  HS02004817HS02004807    1.00   0.00  0.03  0.00  0.97  0.00  0.00  0.00  0.01  0.00
  HS02004807HS02004802    1.00   0.03  0.00  0.00  0.97  0.00  0.00  0.00  0.00  0.00
  YS02001759YS02001757    1.00   0.00  0.00  0.00  1.00  0.00  0.00  0.00  0.16  0.00
  YS02001762YS02001759    1.00   0.00  0.00  0.00  1.00  0.00  0.00  0.00  0.03  0.00
  YS02001765YS02001762    1.00   0.00  0.00  0.00  1.00  0.00  0.00  0.00  0.13  0.00
  YS02001770YS02001767    1.00   0.00  0.00  0.00  1.00  0.00  0.00  0.00  0.00  0.00
  YS02001774YS02001770    1.00   0.00  0.03  0.00  0.97  0.00  0.00  0.00  0.03  0.00
  YS02001779YS02001774    1.00   0.00  0.00  0.00  1.00  0.00  0.00  0.00  0.17  0.00
  YS02001649YS02001757    1.00   0.00  0.00  0.00  1.00  0.00  0.00  0.00  0.16  0.00
  YS02001767YS02001765    1.00   0.00  0.00  0.00  1.00  0.00  0.00  0.00  0.00  0.00
  YS02006561YS02001783    1.00   0.04  0.00  0.00  0.29  0.67  0.00  0.00  0.51  0.00
  YS02001783YS02001784    1.00   0.00  0.04  0.00  0.96  0.00  0.00  0.00  0.00  0.00
  YS02001784YS02001785    1.00   0.00  0.00  0.00  1.00  0.00  0.00  0.00  0.16  0.00
  YS02001788YS02001790    1.00   0.00  0.00  0.00  0.28  0.72  0.00  0.00  0.50  0.00
  YS02001790YS02001791    1.00   0.00  0.00  0.00  0.26  0.74  0.00  0.00  0.57  0.00
  YS02001791YS02001793    1.00   0.00  0.00  0.00  0.27  0.73  0.00  0.00  0.01  0.00
  YS02001910YS02001907    1.00   0.00  0.00  0.00  0.98  0.00  0.00  0.01  0.12  0.00
  YS02001786YS02001788    1.00   0.00  0.00  0.00  0.27  0.73  0.00  0.00  0.00  0.00
  YS02001915YS02001910    1.00   0.00  0.00  0.00  1.00  0.00  0.00  0.00  0.14  0.00
  YS02001918YS02001915    1.00   0.00  0.01  0.00  0.99  0.00  0.00  0.00  0.57  0.00
  YS02001923YS02001920    1.00   0.00  0.00  0.00  1.00  0.00  0.00  0.00  0.83  0.00
  YS02001926YS02001923    1.00   0.00  0.02  0.00  0.13  0.00  0.84  0.00  0.00  0.00
  YS02001929YS02001926    1.00   0.00  0.03  0.00  0.97  0.00  0.00  0.00  0.81  0.00
  YS02001920YS02001918    1.00   0.00  0.01  0.00  0.99  0.00  0.00  0.00  0.00  0.00
  YS02001629YS02163301    1.00   0.03  0.00  0.00  0.96  0.00  0.00  0.00  0.00  0.00
  YS02001619YS02001622    1.00   0.03  0.00  0.00  0.97  0.00  0.00  0.00  0.00  0.00
  YS02001622YS02001625    1.00   0.03  0.00  0.00  0.97  0.00  0.00  0.00  0.04  0.00
  YS02001625YS02001629    1.00   0.03  0.01  0.00  0.95  0.00  0.01  0.00  0.00  0.00
  YS02163301YS02001633    1.00   0.00  0.03  0.00  0.97  0.00  0.00  0.00  0.00  0.00
  YS02163601YS02164001    1.00   0.00  0.02  0.00  0.98  0.00  0.00  0.00  0.00  0.00
  YS02164001YS02001641    1.00   0.01  0.01  0.00  0.98  0.00  0.00  0.00  0.06  0.00
  YS02001641YS02001644    1.00   0.00  0.01  0.00  0.99  0.00  0.00  0.00  0.00  0.00
  YS02001647YS02001649    1.00   0.00  0.03  0.00  0.96  0.00  0.00  0.00  0.01  0.00
  YS02006553YS02006556    1.00   0.01  0.00  0.00  0.99  0.00  0.00  0.00  0.03  0.00
  YS02006556YS02006558    1.00   0.00  0.00  0.00  1.00  0.00  0.00  0.00  0.00  0.00
  YSB6556YSB1171          1.00   0.02  0.01  0.00  0.97  0.00  0.00  0.00  0.00  0.00
  YS02001907YS02006553    1.00   0.00  0.01  0.00  0.98  0.00  0.00  0.00  0.00  0.00
  YS02006558YS02006561    1.00   0.04  0.00  0.00  0.16  0.80  0.00  0.00  0.49  0.00
  YS02001633YS02163601    1.00   0.00  0.01  0.00  0.99  0.00  0.00  0.00  0.15  0.00
  YS02001644YS02001647    1.00   0.00  0.04  0.00  0.96  0.00  0.00  0.00  0.00  0.00
  YS02001745YS02001748    1.00   0.00  0.00  0.00  0.93  0.00  0.00  0.07  0.03  0.00
  YS02001748YS02001751    1.00   0.00  0.00  0.00  0.98  0.02  0.00  0.00  0.14  0.00
  YS02001751YS02001754    1.00   0.00  0.00  0.00  0.96  0.00  0.00  0.04  0.01  0.00
  YS02001754YS02001757    1.00   0.00  0.00  0.00  0.99  0.01  0.00  0.00  0.17  0.00
  YS02001882YS02001884    1.00   0.03  0.00  0.00  0.97  0.00  0.00  0.00  0.00  0.00
  YS02001884YS02001887    1.00   0.02  0.01  0.00  0.97  0.00  0.00  0.00  0.00  0.00
  YS02001890YS02001895    1.00   0.00  0.03  0.00  0.97  0.00  0.00  0.00  0.00  0.00
  YS02001895YS02001898    1.00   0.03  0.00  0.00  0.96  0.00  0.00  0.00  0.00  0.00
  YS02001898YS02001901    1.00   0.04  0.00  0.00  0.96  0.00  0.00  0.00  0.01  0.00
  YS02001901YS02001904    1.00   0.04  0.00  0.00  0.96  0.00  0.00  0.00  0.00  0.00
  YS02001904YS02001907    1.00   0.00  0.03  0.00  0.96  0.00  0.00  0.00  0.00  0.00
  YS02001887YS02001890    1.00   0.00  0.00  0.00  0.98  0.00  0.01  0.00  0.00  0.00
  YS02001652YS02001649    1.00   0.00  0.00  0.00  1.00  0.00  0.00  0.00  0.15  0.00
  YS02001655YS02001652    1.00   0.00  0.00  0.00  0.96  0.00  0.00  0.04  0.01  0.00
  YS02001658YS02001655    1.00   0.00  0.03  0.00  0.95  0.02  0.00  0.00  0.02  0.00
  YS02001661YS02001658    1.00   0.03  0.00  0.00  0.93  0.04  0.00  0.00  0.03  0.00
  YS02001664YS02001661    1.00   0.03  0.00  0.00  0.89  0.08  0.00  0.00  0.15  0.00
  YSB1154YSB6556          1.00   0.03  0.00  0.00  0.97  0.00  0.00  0.00  0.01  0.00
  YSB1174YSB1171          1.00   0.02  0.01  0.00  0.97  0.00  0.00  0.00  0.00  0.00
  YSB1171HS02004479       1.00   0.02  0.00  0.00  0.98  0.00  0.00  0.00  0.10  0.00
  HS02004881HS02006253    1.00   0.02  0.00  0.00  0.81  0.01  0.00  0.15  0.70  0.00
  YS02001793JiankangQianchi    1.00   0.00  0.00  0.00  0.40  0.60  0.00  0.00  0.12  0.00
  YS02001757CaochengTiaoxuchi    1.00   0.00  0.05  0.00  0.91  0.04  0.00  0.00  0.00  0.00
  WSF200WS02003060        1.00   0.00  0.06  0.00  0.28  0.66  0.00  0.00  0.00  0.00
  1                       1.00   0.00  0.00  0.00  0.00  1.00  0.00  0.00  0.22  0.00
  2                       1.00   0.35  0.00  0.00  0.00  0.65  0.00  0.00  0.04  0.00
  3                       1.00   0.03  0.00  0.00  0.00  0.97  0.00  0.00  0.00  0.00
  4                       1.00   1.00  0.00  0.00  0.00  0.00  0.00  0.00  0.00  0.00
  
  
  *************************
  Conduit Surcharge Summary
  *************************
  
  ----------------------------------------------------------------------------
                                                           Hours        Hours 
                         --------- Hours Full --------   Above Full   Capacity
  Conduit                Both Ends  Upstream  Dnstream   Normal Flow   Limited
  ----------------------------------------------------------------------------
  WS02006229WS02006228        4.54      4.68      4.54      6.30         4.54
  WS02006256WS02006235        6.36      6.36      7.83      2.52         0.01
  WS02006252WS02006251        3.54      3.54      3.95      3.83         0.01
  WS02006251WS02006249        0.01      0.01      0.01      3.52         0.01
  WS02006249WS02006248        0.01      0.01      0.01      5.41         0.01
  WS02006247WS02006245        0.01      0.01      0.01      5.50         0.01
  WS02006243WS02006242        0.01      0.01      3.93      0.01         0.01
  WS02006242WS02006240        1.17      1.17      4.10      3.90         0.01
  WS02006240WS02006239        2.37      2.37      2.65      0.01         0.01
  WS02006239WS02006238        4.08      4.08      4.15      0.01         0.01
  WS02006238WS02006235        4.10      4.10      4.28      0.01         0.01
  WS02006235WS02006234        0.87      0.87      4.02      6.38         0.01
  WS02006234WS02006232        2.35      2.35      4.37      0.01         0.01
  WS02006232WS02006231        0.49      0.49      4.37      0.01         0.01
  WS02006231WS02006230        0.44      0.44      0.50      6.34         0.01
  WS02006230WS02006229        5.18      6.14      5.18      6.41         5.18
  WS02006228WS02006109        4.61      4.94      4.61      6.32         4.61
  WS02006112WS02006115        0.01      0.01      0.80      0.01         0.01
  WS02006111WS02006112        0.01      0.01      6.25      0.01         0.01
  WS02006110WS02006113        0.01      0.01      4.79      0.01         0.01
  WS02006109WS02006110        0.59      0.59      4.94      0.60         0.01
  WS02004406WS02004407        0.01      0.01      0.36      0.01         0.01
  WS02004405WS02004406        0.36      0.41      0.36      0.65         0.36
  WS02004404WS02004405        0.41      0.46      0.41      6.32         0.41
  WS02004403WS02004404        0.01      0.01      0.46      0.01         0.01
  WS02003072WS02003073        0.01      0.01      0.01      6.12         0.01
  HS02004480HS02004478        0.01      0.01      0.01      0.41         0.01
  YS02001759YS02001757        6.15      6.15      6.19      0.01         0.01
  YS02001762YS02001759        6.14      6.14      6.15      0.01         0.01
  YS02001765YS02001762        6.13      6.13      6.14      0.01         0.01
  YS02001770YS02001767        6.12      6.13      6.12      0.38         0.84
  YS02001774YS02001770        6.11      6.11      6.14      0.01         0.01
  YS02001779YS02001774        5.95      5.95      6.14      0.01         0.01
  YS02001649YS02001757        6.14      6.14      6.19      0.01         0.01
  YS02001767YS02001765        6.12      6.12      6.13      0.01         0.01
  YS02006561YS02001783        0.39      0.39      1.21      0.01         0.01
  YS02001783YS02001784        1.14      1.21      1.17      1.38         0.94
  YS02001784YS02001785        1.13      1.17      1.13      2.22         1.13
  YS02001788YS02001790        1.13      1.13      1.33      0.01         0.01
  YS02001790YS02001791        1.33      1.33      1.38      0.01         0.01
  YS02001791YS02001793        1.38      1.38      1.55      0.01         0.01
  YS02001910YS02001907        1.11      1.11      1.69      0.01         0.01
  YS02001786YS02001788        1.13      1.13      1.13      1.90         1.12
  YS02001915YS02001910        0.70      0.70      1.11      0.01         0.01
  YS02001918YS02001915        0.01      0.01      0.70      0.01         0.01
  YS02001629YS02163301        6.10      6.10      6.11      0.01         0.01
  YS02001619YS02001622        5.78      5.78      5.82      0.01         0.01
  YS02001622YS02001625        5.82      5.82      6.09      0.01         0.01
  YS02001625YS02001629        5.80      5.80      6.09      0.01         0.01
  YS02163301YS02001633        6.11      6.11      6.12      0.01         0.01
  YS02163601YS02164001        6.12      6.12      6.15      0.01         0.01
  YS02164001YS02001641        6.12      6.12      6.13      0.01         0.02
  YS02001641YS02001644        6.13      6.13      6.13      1.40         1.44
  YS02001647YS02001649        6.06      6.06      6.14      0.01         0.01
  YS02006553YS02006556        1.42      1.42      1.75      0.01         0.01
  YS02006556YS02006558        1.60      1.60      1.82      0.01         0.01
  YS02001907YS02006553        2.23      2.23      2.41      0.01         0.01
  YS02006558YS02006561        0.85      1.37      0.85      2.10         0.85
  YS02001633YS02163601        6.12      6.12      6.15      0.01         0.01
  YS02001644YS02001647        6.06      6.06      6.13      0.01         0.01
  YS02001745YS02001748        0.01      0.01      5.08      0.01         0.01
  YS02001748YS02001751        5.43      5.43      5.79      0.01         0.01
  YS02001751YS02001754        5.79      5.79      5.97      0.01         0.01
  YS02001754YS02001757        6.03      6.03      6.19      0.01         0.01
  YS02001882YS02001884        0.72      0.72      0.77      0.01         0.01
  YS02001884YS02001887        0.84      0.84      0.94      0.01         0.01
  YS02001890YS02001895        0.67      0.67      1.16      0.01         0.01
  YS02001895YS02001898        0.64      0.64      0.67      0.01         0.01
  YS02001898YS02001901        0.68      0.68      0.84      0.01         0.01
  YS02001901YS02001904        0.81      0.81      0.84      0.01         0.01
  YS02001904YS02001907        0.81      0.81      1.77      0.01         0.01
  YS02001887YS02001890        1.03      1.03      1.09      0.01         0.01
  YS02001652YS02001649        6.07      6.07      6.14      0.01         0.01
  YS02001655YS02001652        5.80      5.80      6.03      0.01         0.01
  YS02001658YS02001655        5.15      5.15      5.80      0.01         0.01
  YS02001661YS02001658        0.21      0.21      5.16      0.01         0.01
  YS02001664YS02001661        0.01      0.01      1.21      0.01         0.01
  YS02001793JiankangQianchi        1.50      1.50      2.28      0.01         0.01
  YS02001757CaochengTiaoxuchi        5.49      5.49      6.19      0.01         0.01
  3                           0.01      0.01      0.01      0.01         0.01
  
  
  ***************
  Pumping Summary
  ***************
  
  ---------------------------------------------------------------------------------------------------------
                                                  Min       Avg       Max     Total     Power    % Time Off
                        Percent   Number of      Flow      Flow      Flow    Volume     Usage    Pump Curve
  Pump                 Utilized   Start-Ups       LPS       LPS       LPS  10^6 ltr     Kw-hr    Low   High
  ---------------------------------------------------------------------------------------------------------
  CC-Pump-1               65.49           2      0.00    192.59    200.00     3.564      4.66    0.0    2.5
  CC-Pump-2               61.23           4      0.00    176.61    200.00     3.070      5.36    0.0    8.7
  JK-Pump-1              100.00           2      0.00    221.76    300.00     5.050     67.67    0.0    0.0
  JK-Pump-2               89.36           3      0.00    232.16    300.00     4.633     59.45    0.0    0.0
  XR-Pump-1               46.80           4      0.00     77.75     95.00     1.054      4.80    0.0    0.0
  XR-Pump-2               72.34           3      0.00     86.50     95.00     1.796      9.19    0.0    0.0
  XR-Pump-3               44.67           4      0.00     76.75     95.00     0.997      4.53    0.0    0.0
  XR-Pump-4               51.06           3      0.00     83.62     95.00     1.197      5.45    0.0    0.0
  

  Analysis begun on:  Wed Jan  5 16:55:19 2022
  Analysis ended on:  Wed Jan  5 16:55:22 2022
  Total elapsed time: 00:00:03