
  EPA STORM WATER MANAGEMENT MODEL - VERSION 5.1 (Build 5.3.0.dev0)
  --------------------------------------------------------------

  WARNING 04: minimum elevation drop used for Conduit WS02004404WS02004405
  WARNING 03: negative offset ignored for Link YS02001904YS02001907
  
  *********************************************************
  NOTE: The summary statistics displayed in this report are
  based on results found at every computational time step,  
  not just on results from each reporting time step.
  *********************************************************
  
  ****************
  Analysis Options
  ****************
  Flow Units ............... LPS
  Process Models:
    Rainfall/Runoff ........ YES
    RDII ................... NO
    Snowmelt ............... NO
    Groundwater ............ NO
    Flow Routing ........... YES
    Ponding Allowed ........ NO
    Water Quality .......... NO
  Infiltration Method ...... HORTON
  Flow Routing Method ...... DYNWAVE
  Surcharge Method ......... EXTRAN
  Starting Date ............ 08/28/2015 08:00:00
  Ending Date .............. 08/28/2015 15:50:00
  Antecedent Dry Days ...... 8.0
  Report Time Step ......... 00:01:00
  Wet Time Step ............ 00:01:00
  Dry Time Step ............ 00:01:00
  Routing Time Step ........ 5.00 sec
  Variable Time Step ....... YES
  Maximum Trials ........... 8
  Number of Threads ........ 4
  Head Tolerance ........... 0.001500 m
  
  
  **************************        Volume         Depth
  Runoff Quantity Continuity     hectare-m            mm
  **************************     ---------       -------
  Total Precipitation ......         5.493        12.027
  Evaporation Loss .........         0.000         0.000
  Infiltration Loss ........         1.412         3.091
  Surface Runoff ...........         3.074         6.729
  Final Storage ............         1.009         2.209
  Continuity Error (%) .....        -0.014
  
  
  **************************        Volume        Volume
  Flow Routing Continuity        hectare-m      10^6 ltr
  **************************     ---------     ---------
  Dry Weather Inflow .......         0.616         6.165
  Wet Weather Inflow .......         3.072        30.724
  Groundwater Inflow .......         0.000         0.000
  RDII Inflow ..............         0.000         0.000
  External Inflow ..........         0.102         1.024
  External Outflow .........         1.774        17.737
  Flooding Loss ............         1.465        14.649
  Evaporation Loss .........         0.000         0.000
  Exfiltration Loss ........         0.000         0.000
  Initial Stored Volume ....         0.076         0.761
  Final Stored Volume ......         0.630         6.297
  Continuity Error (%) .....        -0.027
  
  
  *************************
  Highest Continuity Errors
  *************************
  Node HS02004842 (16.39%)
  Node YS02001884 (11.22%)
  Node YSB1171 (3.16%)
  Node HS02004817 (3.01%)
  Node HS02004901 (2.34%)
  
  
  ***************************
  Time-Step Critical Elements
  ***************************
  Link 3 (89.74%)
  Link WS02006280WS02006229 (2.44%)
  Link YS02001791YS02001793 (1.69%)
  Link WS02006238WS02006235 (1.51%)
  
  
  ********************************
  Highest Flow Instability Indexes
  ********************************
  Link YS02163601YS02164001 (44)
  Link YS02163301YS02001633 (44)
  Link YS02001629YS02163301 (43)
  Link YS02001619YS02001622 (42)
  Link YS02164001YS02001641 (40)
  
  
  *************************
  Routing Time Step Summary
  *************************
  Minimum Time Step           :     0.50 sec
  Average Time Step           :     0.95 sec
  Maximum Time Step           :     5.00 sec
  Percent in Steady State     :     0.00
  Average Iterations per Step :     4.60
  Percent Not Converging      :    21.69
  
  
  ***************************
  Subcatchment Runoff Summary
  ***************************
  
  ------------------------------------------------------------------------------------------------------------------------------
                            Total      Total      Total      Total     Imperv       Perv      Total       Total     Peak  Runoff
                           Precip      Runon       Evap      Infil     Runoff     Runoff     Runoff      Runoff   Runoff   Coeff
  Subcatchment                 mm         mm         mm         mm         mm         mm         mm    10^6 ltr      LPS
  ------------------------------------------------------------------------------------------------------------------------------
  sub0                      12.03       0.00       0.00       0.84       9.92       0.00       9.92        0.01     2.03   0.825
  sub1                      12.03       0.00       0.00       1.32       9.45       0.00       9.45        0.06    13.40   0.786
  sub2                      12.03       0.00       0.00       4.45       6.67       0.00       6.67        0.06    12.40   0.555
  sub3                      12.03       0.00       0.00       4.45       6.63       0.00       6.63        0.15    27.80   0.552
  sub4                      12.03       0.00       0.00       1.32       9.30       0.00       9.30        0.19    33.44   0.773
  sub5                      12.03       0.00       0.00       0.84       9.87       0.00       9.87        0.11    23.84   0.821
  sub7                      12.03       0.00       0.00       1.08       9.69       0.00       9.69        0.03     7.67   0.806
  sub8                      12.03       0.00       0.00       1.08       9.68       0.00       9.68        0.06    14.05   0.805
  sub9                      12.03       0.00       0.00       1.08       9.68       0.00       9.68        0.05    10.50   0.805
  sub10                     12.03       0.00       0.00       0.96       9.77       0.00       9.77        0.11    23.44   0.813
  sub11                     12.03       0.00       0.00       0.96       9.79       0.00       9.79        0.11    26.14   0.814
  sub12                     12.03       0.00       0.00       1.56       9.28       0.00       9.28        0.08    19.99   0.771
  sub14                     12.03       0.00       0.00       1.08       9.68       0.00       9.68        0.09    20.64   0.805
  sub15                     12.03       0.00       0.00       3.61       7.44       0.00       7.44        0.13    28.31   0.619
  sub16                     12.03       0.00       0.00       3.97       7.14       0.00       7.14        0.07    18.12   0.594
  sub17                     12.03       0.00       0.00       3.85       7.24       0.00       7.24        0.06    14.90   0.602
  sub22                     12.03       0.00       0.00       5.17       6.07       0.00       6.07        0.38    88.71   0.504
  sub23                     12.03       0.00       0.00       4.45       6.71       0.00       6.71        0.32    74.74   0.558
  sub60                     12.03       0.00       0.00       1.44       7.74       0.00       7.74        2.35   221.95   0.644
  sub61                     12.03       0.00       0.00       2.04       7.85       0.00       7.85        2.42   262.11   0.653
  sub62                     12.03       0.00       0.00       0.96       8.54       0.00       8.54        2.63   273.68   0.710
  sub63                     12.03       0.00       0.00       3.49       6.87       0.00       6.87        2.08   239.63   0.571
  sub64                     12.03       0.00       0.00       1.80       7.43       0.00       7.43        2.26   211.47   0.618
  sub65                     12.03       0.00       0.00       1.56       7.55       0.00       7.55        2.32   215.23   0.628
  sub66                     12.03       0.00       0.00       3.49       6.37       0.00       6.37        1.95   191.04   0.530
  sub67                     12.03       0.00       0.00       0.96       9.00       0.00       9.00        2.78   332.67   0.749
  sub68                     12.03       0.00       0.00       1.68       8.26       0.00       8.26        2.54   285.76   0.687
  sub69                     12.03       0.00       0.00       1.80       8.55       0.00       8.55        2.00   265.64   0.711
  sub70                     12.03       8.73       0.00       6.95      11.44       0.11      11.55        2.64   261.84   0.556
  sub71                     12.03       0.00       0.00       0.96       8.33       0.00       8.33        1.97   195.24   0.692
  sub72                     12.03       0.00       0.00       0.84       6.67       0.00       6.67        1.36   105.11   0.555
  sub73                     12.03      11.24       0.00       7.83      12.57       0.08      12.65        2.97   255.46   0.544
  sub74                     12.03       0.00       0.00       9.02       2.55       0.00       2.55        1.02   143.98   0.212
  
  
  ******************
  Node Depth Summary
  ******************
  
  ---------------------------------------------------------------------------------
                                 Average  Maximum  Maximum  Time of Max    Reported
                                   Depth    Depth      HGL   Occurrence   Max Depth
  Node                 Type       Meters   Meters   Meters  days hr:min      Meters
  ---------------------------------------------------------------------------------
  WS02001211           JUNCTION     0.69     0.72     5.56     0  02:05        0.72
  WS02001212           JUNCTION     0.41     0.45     5.51     0  02:04        0.45
  WS02001213           JUNCTION     0.63     0.71     5.47     0  02:03        0.71
  WS02003069           JUNCTION     0.42     0.55     5.14     0  02:02        0.55
  WS02003072           JUNCTION     0.49     0.61     4.98     0  02:03        0.61
  WS02003073           JUNCTION     0.29     0.38     4.44     0  02:04        0.38
  WS02003060           JUNCTION     0.38     0.49     5.42     0  02:02        0.49
  WS02003066           JUNCTION     0.20     0.30     5.86     0  01:59        0.30
  WS02003059           JUNCTION     0.69     0.77     5.45     0  02:02        0.77
  WS02003067           JUNCTION     0.52     0.71     6.03     0  01:59        0.71
  WS02004401           JUNCTION     0.59     0.86     6.86     0  01:56        0.86
  WS02004402           JUNCTION     0.63     0.89     6.85     0  01:57        0.89
  WS02004403           JUNCTION     0.65     0.90     6.83     0  01:57        0.90
  WS02004404           JUNCTION     0.73     0.97     6.82     0  01:57        0.97
  WS02004406           JUNCTION     0.74     0.96     6.79     0  01:57        0.96
  WS02004409           JUNCTION     0.41     0.68     6.45     0  01:59        0.68
  WS02004410           JUNCTION     0.44     0.69     6.41     0  01:58        0.69
  WS02004411           JUNCTION     0.45     0.70     6.38     0  01:58        0.70
  WS02004412           JUNCTION     0.47     0.71     6.35     0  01:59        0.71
  WS02004413           JUNCTION     0.63     0.86     6.33     0  01:59        0.86
  WS02004405           JUNCTION     0.72     0.97     6.82     0  01:57        0.97
  WS02006109           JUNCTION     0.66     0.98     7.59     0  01:53        0.98
  WS02006110           JUNCTION     0.67     0.93     7.51     0  01:54        0.93
  WS02006111           JUNCTION     0.18     0.29     6.99     0  01:55        0.29
  WS02006112           JUNCTION     0.75     1.10     6.98     0  01:59        1.08
  WS02006113           JUNCTION     0.28     0.46     7.35     0  01:55        0.46
  WS02006115           JUNCTION     0.48     0.77     6.90     0  01:56        0.77
  WS02006116           JUNCTION     0.56     0.84     6.88     0  01:56        0.84
  WS02006230           JUNCTION     0.58     0.98     7.73     0  01:54        0.98
  WS02006231           JUNCTION     0.36     0.62     7.74     0  01:55        0.62
  WS02006232           JUNCTION     0.47     0.72     7.76     0  01:55        0.72
  WS02006234           JUNCTION     0.37     0.61     7.77     0  01:56        0.61
  WS02006235           JUNCTION     0.39     0.62     7.78     0  01:56        0.62
  WS02006238           JUNCTION     0.41     0.64     7.78     0  01:56        0.64
  WS02006240           JUNCTION     0.27     0.50     7.79     0  01:57        0.50
  WS02006242           JUNCTION     0.29     0.52     7.79     0  01:56        0.52
  WS02006243           JUNCTION     0.16     0.38     7.80     0  01:57        0.38
  WS02006245           JUNCTION     0.11     0.32     7.80     0  01:57        0.32
  WS02006247           JUNCTION     0.12     0.31     7.81     0  01:57        0.31
  WS02006248           JUNCTION     0.08     0.24     7.82     0  01:56        0.24
  WS02006249           JUNCTION     0.11     0.26     7.86     0  01:55        0.26
  WS02006239           JUNCTION     0.35     0.58     7.79     0  01:56        0.58
  WS02006251           JUNCTION     0.09     0.23     7.90     0  01:54        0.23
  WS02006252           JUNCTION     0.00     0.00     8.24     0  00:00        0.00
  WS02006253           JUNCTION     0.14     0.29     7.94     0  01:43        0.29
  WS02006256           JUNCTION     1.07     1.70     8.63     0  01:47        1.25
  WS02004138           JUNCTION     0.16     0.17     7.42     0  05:48        0.17
  WS02004407           JUNCTION     0.19     0.30     6.61     0  01:57        0.30
  WS02006228           JUNCTION     0.65     1.02     7.67     0  01:53        1.02
  WS02006229           JUNCTION     0.62     1.01     7.71     0  01:54        1.01
  WS02006280           JUNCTION     0.08     0.19     8.46     0  01:42        0.19
  WS02006284           JUNCTION     0.39     0.54     8.94     0  01:42        0.54
  WS02006287           JUNCTION     0.12     0.28     9.23     0  01:42        0.28
  WSF200               JUNCTION     0.18     0.32     5.55     0  01:59        0.32
  HS02004901           JUNCTION     0.14     0.28    10.10     0  01:39        0.28
  HS02004881           JUNCTION     0.01     0.03     9.06     0  01:43        0.03
  HS02004876           JUNCTION     0.06     0.12     9.15     0  01:43        0.12
  HS02004870           JUNCTION     0.02     0.06     9.35     0  01:43        0.06
  HS02004862           JUNCTION     0.03     0.07     9.45     0  01:44        0.07
  HS02004856           JUNCTION     0.09     0.12     9.55     0  01:44        0.12
  HS02004852           JUNCTION     0.01     0.04     9.56     0  01:52        0.04
  HS02004848           JUNCTION     0.01     0.04     9.64     0  01:51        0.04
  HS02004842           JUNCTION     0.34     0.37     9.64     0  01:51        0.37
  HS02004837           JUNCTION     0.03     0.06     9.64     0  01:51        0.06
  HS02004830           JUNCTION     0.05     0.08     9.55     0  01:45        0.08
  HS02004824           JUNCTION     0.03     0.06     9.46     0  01:54        0.06
  HS02004817           JUNCTION     0.46     0.59     9.43     0  01:43        0.59
  HS02004807           JUNCTION     0.14     0.26     9.43     0  01:43        0.26
  HS02004802           JUNCTION     0.18     0.30     9.42     0  01:43        0.29
  HS02004799           JUNCTION     0.15     0.33     9.54     0  01:40        0.33
  HS02004792           JUNCTION     0.04     0.14     9.66     0  01:40        0.14
  HS02004788           JUNCTION     0.03     0.10    10.00     0  01:40        0.10
  HS02004785           JUNCTION     0.06     0.17    10.07     0  01:40        0.17
  HS02004777           JUNCTION     0.17     0.30    10.10     0  01:39        0.30
  HS02004770           JUNCTION     0.14     0.27    10.10     0  01:39        0.27
  HS02004480           JUNCTION     0.10     0.27     9.51     0  01:41        0.27
  HS02004479           JUNCTION     0.14     0.30     9.51     0  01:40        0.30
  HS02004478           JUNCTION     0.08     0.18     9.41     0  01:42        0.18
  YS02001745           JUNCTION     0.74     0.89     8.41     0  02:45        0.89
  YS02001748           JUNCTION     1.15     2.27     9.35     0  02:04        1.33
  YS02001751           JUNCTION     1.34     2.14     9.02     0  02:04        1.54
  YS02001754           JUNCTION     1.60     2.10     8.71     0  02:04        1.81
  YS02001762           JUNCTION     1.81     2.04     8.44     0  02:50        2.03
  YS02001765           JUNCTION     1.76     1.99     8.44     0  02:04        1.97
  YS02001767           JUNCTION     1.72     1.94     8.43     0  02:48        1.93
  YS02001770           JUNCTION     1.71     1.94     8.44     0  02:04        1.91
  YS02001774           JUNCTION     1.78     2.00     8.43     0  02:04        1.97
  YS02001779           JUNCTION     1.53     1.68     8.37     0  02:01        1.68
  YS02001882           JUNCTION     0.61     1.38     8.09     0  02:29        1.36
  YS02001884           JUNCTION     0.71     1.47     8.09     0  02:29        1.46
  YS02001759           JUNCTION     1.84     2.08     8.44     0  02:44        2.06
  YS02001887           JUNCTION     0.78     1.55     8.09     0  02:32        1.54
  YS02001890           JUNCTION     0.81     1.58     8.08     0  02:30        1.56
  YS02001898           JUNCTION     0.58     1.33     8.07     0  02:32        1.32
  YS02001901           JUNCTION     0.70     1.46     8.07     0  02:29        1.45
  YS02001904           JUNCTION     0.68     1.43     8.06     0  02:29        1.42
  YS02001907           JUNCTION     1.01     1.77     8.06     0  02:29        1.76
  YS02001910           JUNCTION     0.80     1.56     8.06     0  02:29        1.54
  YS02001915           JUNCTION     0.59     1.35     8.07     0  02:29        1.34
  YS02001918           JUNCTION     0.32     1.00     8.06     0  02:29        0.99
  YS02001619           JUNCTION     1.31     1.61     8.54     0  02:00        1.46
  YS02001629           JUNCTION     1.67     1.85     8.40     0  02:01        1.85
  YS02001641           JUNCTION     1.77     1.97     8.41     0  02:06        1.93
  YS02001644           JUNCTION     1.77     1.92     8.35     0  02:05        1.92
  YS02001652           JUNCTION     1.61     2.16     8.76     0  02:16        1.90
  YS02001655           JUNCTION     1.37     2.20     9.05     0  01:55        1.74
  YS02001920           JUNCTION     0.41     1.06     8.06     0  02:29        1.05
  YS02001923           JUNCTION     0.23     0.80     8.06     0  02:30        0.80
  YS02001926           JUNCTION     0.27     0.62     8.06     0  02:31        0.62
  YS02001929           JUNCTION     0.14     0.37     8.07     0  02:30        0.36
  YS02001658           JUNCTION     1.09     2.30     9.44     0  02:00        1.56
  YS02001661           JUNCTION     0.85     2.46     9.86     0  02:20        1.42
  YS02001664           JUNCTION     0.38     0.57     8.49     0  02:18        0.56
  YS02001622           JUNCTION     1.33     1.62     8.52     0  02:00        1.49
  YS02001633           JUNCTION     1.76     1.98     8.43     0  02:06        1.94
  YS02001649           JUNCTION     1.81     2.05     8.44     0  02:00        2.05
  YS02001757           JUNCTION     1.94     2.20     8.47     0  02:04        2.18
  YS02001895           JUNCTION     0.57     1.33     8.08     0  02:31        1.32
  YS02001625           JUNCTION     1.62     1.78     8.38     0  02:00        1.78
  YS02163301           JUNCTION     1.70     1.92     8.44     0  02:06        1.88
  YS02163601           JUNCTION     1.81     2.04     8.44     0  02:06        1.99
  YS02164001           JUNCTION     1.75     1.97     8.43     0  02:06        1.92
  YS02001647           JUNCTION     1.60     1.82     8.43     0  02:00        1.79
  YSB1154              JUNCTION     0.28     0.45     9.51     0  01:40        0.45
  YSB6556              JUNCTION     0.17     0.34     9.51     0  01:40        0.34
  YSB1174              JUNCTION     0.23     0.40     9.51     0  01:41        0.40
  YSB1171              JUNCTION     0.44     0.61     9.51     0  01:40        0.61
  YS02006553           JUNCTION     1.01     1.76     8.05     0  02:29        1.75
  YS02006561           JUNCTION     0.36     0.93     7.59     0  02:29        0.92
  YS02006556           JUNCTION     0.98     1.71     8.02     0  02:29        1.70
  YS02006558           JUNCTION     1.02     1.75     8.02     0  02:30        1.74
  YS02001783           JUNCTION     0.62     1.34     7.48     0  02:29        1.33
  YS02001784           JUNCTION     0.63     1.30     7.37     0  02:29        1.30
  YS02001786           JUNCTION     0.57     1.17     7.20     0  02:28        1.16
  YS02001788           JUNCTION     0.49     1.07     7.04     0  02:27        1.05
  YS02001790           JUNCTION     0.61     1.25     6.90     0  02:32        1.24
  YS02001791           JUNCTION     0.57     1.26     6.73     0  02:31        1.26
  YS02001793           JUNCTION     0.91     1.80     6.63     0  02:33        1.80
  WS02004139           JUNCTION     0.64     0.66     5.57     0  02:05        0.66
  WSC                  OUTFALL      0.29     0.38     1.05     0  02:04        0.38
  3                    OUTFALL      0.14     0.23     6.23     0  01:47        0.22
  4                    OUTFALL      0.00     0.00     7.00     0  00:00        0.00
  5                    OUTFALL      0.00     0.00     5.00     0  00:00        0.00
  JK-storage           STORAGE      4.82     5.80     6.60     0  02:00        5.80
  CC-storage           STORAGE      1.16     1.40     8.40     0  02:43        1.40
  XR-storage           STORAGE      7.57     7.72     5.72     0  01:45        7.72
  
  
  *******************
  Node Inflow Summary
  *******************
  
  -------------------------------------------------------------------------------------------------
                                  Maximum  Maximum                  Lateral       Total        Flow
                                  Lateral    Total  Time of Max      Inflow      Inflow     Balance
                                   Inflow   Inflow   Occurrence      Volume      Volume       Error
  Node                 Type           LPS      LPS  days hr:min    10^6 ltr    10^6 ltr     Percent
  -------------------------------------------------------------------------------------------------
  WS02001211           JUNCTION      7.35   293.82     0  01:29       0.207        7.56       0.450
  WS02001212           JUNCTION      0.00   293.87     0  02:28           0        7.53       0.223
  WS02001213           JUNCTION      0.00   294.46     0  02:28           0        7.51       0.265
  WS02003069           JUNCTION      0.32   860.04     0  02:02     0.00902        12.6       0.163
  WS02003072           JUNCTION      0.00   860.01     0  02:03           0        12.6       0.215
  WS02003073           JUNCTION      1.82   861.82     0  02:03      0.0514        12.6       0.233
  WS02003060           JUNCTION     16.53   859.73     0  02:01       0.466        12.7       0.153
  WS02003066           JUNCTION      0.00   552.53     0  01:59           0        4.73       0.042
  WS02003059           JUNCTION      0.00   295.49     0  02:27           0        7.49       0.477
  WS02003067           JUNCTION      0.00   552.49     0  01:59           0        4.74       0.107
  WS02004401           JUNCTION      0.00   553.81     0  01:56           0        4.87       0.276
  WS02004402           JUNCTION      0.00   553.74     0  01:56           0        4.86       0.272
  WS02004403           JUNCTION      0.00   553.52     0  01:57           0        4.84       0.258
  WS02004404           JUNCTION      0.16   553.62     0  01:57     0.00457        4.84       0.215
  WS02004406           JUNCTION      0.00   553.65     0  01:57           0        4.81       0.502
  WS02004409           JUNCTION      0.00   553.44     0  01:57           0        4.78       0.118
  WS02004410           JUNCTION      0.00   553.10     0  01:58           0        4.78       0.154
  WS02004411           JUNCTION      0.00   552.87     0  01:58           0        4.77       0.173
  WS02004412           JUNCTION      0.00   552.70     0  01:58           0        4.76       0.211
  WS02004413           JUNCTION      0.00   552.55     0  01:59           0        4.75       0.357
  WS02004405           JUNCTION      0.04   553.65     0  01:57     0.00107        4.83       0.305
  WS02006109           JUNCTION      1.23   541.60     0  01:55      0.0347        4.88       0.308
  WS02006110           JUNCTION      0.00   541.61     0  01:55           0        4.87       0.282
  WS02006111           JUNCTION      0.00   563.73     0  01:55           0        4.85       0.044
  WS02006112           JUNCTION     14.90   557.68     0  01:55      0.0621        4.91       0.372
  WS02006113           JUNCTION      0.00   541.85     0  01:55           0        4.85       0.092
  WS02006115           JUNCTION      0.00   564.55     0  02:00           0        4.89       0.257
  WS02006116           JUNCTION      0.00   554.27     0  01:56           0        4.88       0.171
  WS02006230           JUNCTION     10.28   216.99     0  02:09        0.29        3.03       0.281
  WS02006231           JUNCTION      0.00   204.71     0  02:08           0        2.74       0.072
  WS02006232           JUNCTION      0.00   203.48     0  02:08           0        2.74       0.249
  WS02006234           JUNCTION      0.00   201.69     0  02:09           0        2.73       0.053
  WS02006235           JUNCTION      0.00   200.62     0  02:09           0        2.89       0.127
  WS02006238           JUNCTION      0.00   123.48     0  05:13           0       0.612       0.290
  WS02006240           JUNCTION      0.00    74.59     0  02:03           0       0.482       0.608
  WS02006242           JUNCTION      0.00    73.10     0  02:00           0       0.418       0.887
  WS02006243           JUNCTION      0.00    73.48     0  01:42           0       0.373       0.095
  WS02006245           JUNCTION      0.00    75.06     0  01:42           0       0.362       0.377
  WS02006247           JUNCTION      0.00    75.99     0  01:43           0       0.362       0.043
  WS02006248           JUNCTION      0.00    76.32     0  01:44           0       0.362      -0.023
  WS02006249           JUNCTION      0.00    76.39     0  01:44           0       0.362       0.144
  WS02006239           JUNCTION      0.00    83.29     0  01:38           0       0.549       0.316
  WS02006251           JUNCTION      0.08    76.47     0  01:43     0.00217       0.362      -0.007
  WS02006252           JUNCTION      0.00     0.00     0  00:00           0           0       0.000 ltr
  WS02006253           JUNCTION      2.03    76.41     0  01:43     0.00803        0.36       0.072
  WS02006256           JUNCTION      0.00   600.00     0  01:42           0        7.53       0.108
  WS02004138           JUNCTION      0.00   285.00     0  01:27           0        7.38       0.044
  WS02004407           JUNCTION      0.00   553.54     0  01:57           0        4.79       0.058
  WS02006228           JUNCTION      0.00   540.38     0  01:55           0        4.86       0.203
  WS02006229           JUNCTION      0.00   540.61     0  01:54           0        4.88       0.239
  WS02006280           JUNCTION      0.00   366.28     0  01:42           0        1.87       0.003
  WS02006284           JUNCTION      0.10   366.30     0  01:42      0.0027        1.87       0.025
  WS02006287           JUNCTION      0.00   366.22     0  01:42           0        1.87       0.038
  WSF200               JUNCTION      0.00   552.54     0  01:59           0        4.73       0.031
  HS02004901           JUNCTION     18.12    18.12     0  01:36      0.0747      0.0749       2.401
  HS02004881           JUNCTION      7.67    74.61     0  01:43      0.0326       0.352       0.017
  HS02004876           JUNCTION     13.40    67.33     0  01:43      0.0628        0.32       0.168
  HS02004870           JUNCTION     14.05    54.07     0  01:43      0.0618       0.257       0.041
  HS02004862           JUNCTION     12.60    40.55     0  01:44      0.0678       0.196       0.087
  HS02004856           JUNCTION     10.50    27.98     0  01:43      0.0465       0.129       1.124
  HS02004852           JUNCTION      0.00    17.93     0  01:51           0      0.0829       0.064
  HS02004848           JUNCTION     27.80    27.80     0  01:53       0.149       0.149       0.028
  HS02004842           JUNCTION      0.00    10.09     0  01:58           0      0.0794      19.597
  HS02004837           JUNCTION     29.79    38.22     0  01:51       0.287       0.353       0.222
  HS02004830           JUNCTION      0.15    38.36     0  01:51     0.00423       0.344       0.360
  HS02004824           JUNCTION     33.49    71.74     0  01:54       0.195       0.538       0.100
  HS02004817           JUNCTION      0.60    72.33     0  01:54      0.0169       0.554       3.102
  HS02004807           JUNCTION     26.14    95.63     0  01:52       0.114       0.651       0.671
  HS02004802           JUNCTION      0.00    95.92     0  01:53           0       0.649       0.615
  HS02004799           JUNCTION     20.64   230.90     0  01:40      0.0921        1.05       0.259
  HS02004792           JUNCTION     88.99   210.33     0  01:39       0.391       0.955       0.041
  HS02004788           JUNCTION     29.98   122.04     0  01:40       0.175       0.565       0.067
  HS02004785           JUNCTION      0.15    92.14     0  01:39     0.00423       0.391       0.125
  HS02004777           JUNCTION      0.03    92.19     0  01:38    0.000846       0.391       1.344
  HS02004770           JUNCTION     74.74    92.54     0  01:38        0.32       0.393       0.790
  HS02004480           JUNCTION      0.00   273.94     0  01:41           0        1.24       0.088
  HS02004479           JUNCTION      0.00    43.16     0  01:41           0       0.201       0.365
  HS02004478           JUNCTION      0.00   366.17     0  01:42           0        1.87       0.020
  YS02001745           JUNCTION    221.95   436.48     0  02:03        2.35        2.36       0.492
  YS02001748           JUNCTION      0.04   607.02     0  02:03     0.00127        2.35       0.961
  YS02001751           JUNCTION      0.01   329.40     0  01:56     0.00031        2.31       1.039
  YS02001754           JUNCTION      0.26   235.94     0  02:28     0.00733         2.3       1.073
  YS02001762           JUNCTION      0.00   273.09     0  02:18           0        1.76       1.210
  YS02001765           JUNCTION      0.00   272.69     0  02:18           0        1.76       1.392
  YS02001767           JUNCTION      0.54   272.56     0  02:19      0.0151        1.78       2.040
  YS02001770           JUNCTION    273.83   442.10     0  02:50        2.63        3.09       1.033
  YS02001774           JUNCTION      0.00   442.54     0  02:50           0        1.76       1.442
  YS02001779           JUNCTION      0.01   442.54     0  02:49    0.000141        1.73       0.903
  YS02001882           JUNCTION      0.00    17.06     0  01:49           0       0.016      14.975
  YS02001884           JUNCTION      0.00    29.51     0  01:49           0      0.0512      12.633
  YS02001759           JUNCTION    262.15   534.40     0  02:18        2.42        3.69       0.619
  YS02001887           JUNCTION    333.12   337.07     0  02:12        2.79        2.82       0.286
  YS02001890           JUNCTION      0.00   337.93     0  02:11           0        2.77       0.317
  YS02001898           JUNCTION      0.00   340.01     0  02:12           0        2.76       0.095
  YS02001901           JUNCTION      0.00   338.69     0  02:12           0        2.76       0.239
  YS02001904           JUNCTION      0.00   338.36     0  02:12           0        2.76       0.216
  YS02001907           JUNCTION      0.00   619.84     0  02:33           0        6.14       0.383
  YS02001910           JUNCTION      0.00   320.23     0  03:05           0        3.39       0.333
  YS02001915           JUNCTION    195.26   315.69     0  03:03        1.97         3.4       0.166
  YS02001918           JUNCTION      0.00   134.99     0  02:52           0        1.43       0.123
  YS02001619           JUNCTION    191.04   191.04     0  02:29        1.95        1.95       0.618
  YS02001629           JUNCTION      0.00   201.80     0  01:47           0        1.77       1.607
  YS02001641           JUNCTION      0.00   392.85     0  02:15           0        3.99       0.526
  YS02001644           JUNCTION    211.51  1140.79     0  02:48        2.26        10.9       0.236
  YS02001652           JUNCTION      0.00   299.21     0  02:01           0        2.03       1.122
  YS02001655           JUNCTION      0.15   394.05     0  01:55     0.00434        2.05       1.247
  YS02001920           JUNCTION      2.87   135.22     0  02:51      0.0809        1.44       0.191
  YS02001923           JUNCTION      0.04   116.19     0  02:51     0.00106        1.36       0.051
  YS02001926           JUNCTION      0.05   124.33     0  02:52     0.00147        1.36       0.224
  YS02001929           JUNCTION    105.11   105.11     0  02:59        1.36        1.36       0.037
  YS02001658           JUNCTION      0.00   634.16     0  02:00           0        2.08       1.132
  YS02001661           JUNCTION      0.00   633.81     0  02:18           0        2.49       0.067
  YS02001664           JUNCTION    239.63   365.72     0  02:16        2.08        2.49       0.266
  YS02001622           JUNCTION      0.00   191.27     0  02:29           0        1.94       1.646
  YS02001633           JUNCTION    215.43   391.78     0  02:15        2.33        4.06       0.789
  YS02001649           JUNCTION      0.00   842.54     0  02:14           0        6.53       0.566
  YS02001757           JUNCTION      0.00  1562.68     0  02:15           0        7.41       1.257
  YS02001895           JUNCTION      0.00   338.65     0  02:11           0        2.77       0.182
  YS02001625           JUNCTION      0.00   202.33     0  01:47           0        1.91       2.090
  YS02163301           JUNCTION      0.00   207.82     0  02:01           0        1.76       1.372
  YS02163601           JUNCTION      0.11   392.07     0  02:15      0.0031        4.01       0.750
  YS02164001           JUNCTION      0.00   392.33     0  02:15           0        3.99       0.501
  YS02001647           JUNCTION      0.00   595.53     0  02:15           0        5.89       0.479
  YSB1154              JUNCTION     23.84    23.84     0  01:41       0.112       0.113       1.298
  YSB6556              JUNCTION      0.00    24.02     0  01:41           0       0.113       1.116
  YSB1174              JUNCTION     19.99    19.99     0  01:36       0.081      0.0815       1.597
  YSB1171              JUNCTION      0.00    43.59     0  01:40           0         0.2       3.266
  YS02006553           JUNCTION      0.00   619.88     0  02:33           0        6.13       0.246
  YS02006561           JUNCTION      0.00   899.23     0  02:30           0        8.64       0.008
  YS02006556           JUNCTION      0.00   619.80     0  02:33           0        6.14       0.180
  YS02006558           JUNCTION    286.64   899.62     0  02:30        2.56        8.67       0.059
  YS02001783           JUNCTION      0.00   899.35     0  02:30           0        8.64       0.024
  YS02001784           JUNCTION      1.06   900.35     0  02:30      0.0299        8.66       0.039
  YS02001786           JUNCTION      0.06   900.36     0  02:30     0.00159        8.66       0.036
  YS02001788           JUNCTION      0.07   900.41     0  02:30       0.002        8.66       0.022
  YS02001790           JUNCTION      0.15   900.62     0  02:30     0.00437        8.66       0.027
  YS02001791           JUNCTION      0.00   900.55     0  02:30           0        8.66       0.012
  YS02001793           JUNCTION      0.00   900.67     0  02:30           0        8.75       0.020
  WS02004139           JUNCTION      0.32   285.32     0  05:47     0.00905        7.38       0.430
  WSC                  OUTFALL       0.00   861.81     0  02:04           0        12.6       0.000
  3                    OUTFALL       0.00   576.33     0  01:47           0        5.13       0.000
  4                    OUTFALL       0.00     0.00     0  00:00           0           0       0.000 ltr
  5                    OUTFALL       0.00     0.00     0  00:00           0           0       0.000 ltr
  JK-storage           STORAGE       0.00  1154.92     0  04:40           0         8.9       0.041
  CC-storage           STORAGE       0.00  1562.99     0  02:15           0        3.98       1.658
  XR-storage           STORAGE     560.10   560.10     0  02:30        9.63        10.2      -0.000
  
  
  **********************
  Node Surcharge Summary
  **********************
  
  Surcharging occurs when water rises above the top of the highest conduit.
  ---------------------------------------------------------------------
                                               Max. Height   Min. Depth
                                   Hours       Above Crown    Below Rim
  Node                 Type      Surcharged         Meters       Meters
  ---------------------------------------------------------------------
  WS02006109           JUNCTION        0.90          0.156        1.664
  WS02006110           JUNCTION        0.30          0.016        1.834
  WS02006112           JUNCTION        0.50          0.097        1.583
  WS02006232           JUNCTION        0.25          0.021        1.459
  WS02006256           JUNCTION        0.01          0.398        0.652
  WS02006228           JUNCTION        0.89          0.186        2.014
  YS02001748           JUNCTION        5.65          1.190        0.000
  YS02001751           JUNCTION        5.83          1.139        0.061
  YS02001754           JUNCTION        5.96          1.054        0.096
  YS02001762           JUNCTION        6.15          1.038        0.112
  YS02001765           JUNCTION        6.13          0.986        0.114
  YS02001767           JUNCTION        6.13          0.939        0.091
  YS02001770           JUNCTION        6.11          0.913        0.007
  YS02001774           JUNCTION        6.14          1.004        0.046
  YS02001779           JUNCTION        5.96          0.680        0.000
  YS02001882           JUNCTION        0.91          0.375        0.455
  YS02001884           JUNCTION        0.97          0.411        0.459
  YS02001759           JUNCTION        6.15          1.075        0.135
  YS02001887           JUNCTION        1.08          0.503        0.447
  YS02001890           JUNCTION        1.12          0.529        0.231
  YS02001898           JUNCTION        0.83          0.305        0.435
  YS02001901           JUNCTION        1.03          0.462        0.408
  YS02001904           JUNCTION        1.00          0.428        0.422
  YS02001907           JUNCTION        1.68          0.759        0.191
  YS02001910           JUNCTION        1.17          0.558        0.542
  YS02001915           JUNCTION        0.89          0.349        0.651
  YS02001619           JUNCTION        5.86          0.610        0.000
  YS02001629           JUNCTION        5.88          0.470        0.000
  YS02001641           JUNCTION        6.13          0.969        0.131
  YS02001644           JUNCTION        6.13          0.920        0.000
  YS02001652           JUNCTION        6.06          1.130        0.000
  YS02001655           JUNCTION        5.87          1.200        0.000
  YS02001920           JUNCTION        0.24          0.056        1.084
  YS02001658           JUNCTION        5.69          1.300        0.000
  YS02001661           JUNCTION        0.25          1.390        0.000
  YS02001622           JUNCTION        5.90          0.620        0.000
  YS02001633           JUNCTION        6.12          0.957        0.103
  YS02001649           JUNCTION        6.15          1.050        0.000
  YS02001757           JUNCTION        6.19          1.204        0.006
  YS02001895           JUNCTION        0.86          0.335        0.415
  YS02001625           JUNCTION        6.09          0.780        0.000
  YS02163301           JUNCTION        6.11          0.921        0.109
  YS02163601           JUNCTION        6.15          1.039        0.041
  YS02164001           JUNCTION        6.12          0.973        0.127
  YS02001647           JUNCTION        6.08          0.819        0.081
  YS02006553           JUNCTION        1.73          0.763        0.427
  YS02006561           JUNCTION        0.59          0.127        1.023
  YS02006556           JUNCTION        1.42          0.673        0.677
  YS02006558           JUNCTION        1.36          0.650        0.750
  YS02001783           JUNCTION        1.46          0.539        1.061
  YS02001784           JUNCTION        1.49          0.502        0.988
  YS02001786           JUNCTION        1.46          0.374        1.056
  YS02001788           JUNCTION        1.44          0.265        1.215
  YS02001790           JUNCTION        1.66          0.450        0.707
  YS02001791           JUNCTION        1.71          0.460        1.460
  YS02001793           JUNCTION        1.88          0.800        1.800
  
  
  *********************
  Node Flooding Summary
  *********************
  
  Flooding refers to all water that overflows a node, whether it ponds or not.
  --------------------------------------------------------------------------
                                                             Total   Maximum
                                 Maximum   Time of Max       Flood    Ponded
                        Hours       Rate    Occurrence      Volume     Depth
  Node                 Flooded       LPS   days hr:min    10^6 ltr    Meters
  --------------------------------------------------------------------------
  YS02001748              0.01    198.83      0  02:04       0.000     0.000
  YS02001779              2.90    442.52      0  02:49       1.710     0.000
  YS02001619              0.01     28.39      0  02:02       0.000     0.000
  YS02001629              0.01     40.54      0  02:02       0.001     0.000
  YS02001644              5.58   1140.67      0  02:48       9.628     0.000
  YS02001652              0.01     21.55      0  02:22       0.000     0.000
  YS02001655              0.01    187.07      0  01:55       0.000     0.000
  YS02001658              0.01    227.33      0  02:01       0.000     0.000
  YS02001661              0.01    170.11      0  02:22       0.000     0.000
  YS02001622              0.01     45.77      0  02:01       0.000     0.000
  YS02001649              0.11     48.66      0  02:22       0.005     0.000
  YS02001625              0.93     49.38      0  02:29       0.111     0.000
  JK-storage              1.44    300.73      0  02:30       1.108     0.000
  XR-storage              4.11    275.10      0  02:30       2.085     0.000
  
  
  **********************
  Storage Volume Summary
  **********************
  
  --------------------------------------------------------------------------------------------------
                         Average     Avg  Evap Exfil       Maximum     Max    Time of Max    Maximum
                          Volume    Pcnt  Pcnt  Pcnt        Volume    Pcnt     Occurrence    Outflow
  Storage Unit           1000 m3    Full  Loss  Loss       1000 m3    Full    days hr:min        LPS
  --------------------------------------------------------------------------------------------------
  JK-storage               0.242      83     0     0         0.291     100       0  02:00     910.91
  CC-storage               3.228      21     0     0         3.912      25       0  02:43      85.92
  XR-storage               0.909      98     0     0         0.926     100       0  01:45     285.00
  
  
  ***********************
  Outfall Loading Summary
  ***********************
  
  -----------------------------------------------------------
                         Flow       Avg       Max       Total
                         Freq      Flow      Flow      Volume
  Outfall Node           Pcnt       LPS       LPS    10^6 ltr
  -----------------------------------------------------------
  WSC                  100.00    547.84    861.81      12.612
  3                     90.28    324.85    576.33       5.125
  4                      0.00      0.00      0.00       0.000
  5                      0.00      0.00      0.00       0.000
  -----------------------------------------------------------
  System                47.57    872.69   1342.21      17.737
  
  
  ********************
  Link Flow Summary
  ********************
  
  -----------------------------------------------------------------------------
                                 Maximum  Time of Max   Maximum    Max/    Max/
                                  |Flow|   Occurrence   |Veloc|    Full    Full
  Link                 Type          LPS  days hr:min     m/sec    Flow   Depth
  -----------------------------------------------------------------------------
  WS02003066WSF200     CONDUIT    552.54     0  01:59      2.73    0.09    0.24
  WS02006287WS02006284 CONDUIT    366.21     0  01:42      1.96    0.17    0.29
  WS02006284WS02006280 CONDUIT    366.28     0  01:42      2.20    0.15    0.26
  WS02006280WS02006229 CONDUIT    366.28     0  01:42      3.55    0.08    0.19
  WS02006229WS02006228 CONDUIT    540.38     0  01:55      1.08    1.79    1.00
  WS02006256WS02006235 CONDUIT    166.35     0  06:55      2.52    1.76    1.00
  WS02006253WS02006251 CONDUIT     76.39     0  01:43      0.60    0.23    0.36
  WS02006252WS02006251 CONDUIT      0.00     0  00:00      0.00    0.00    0.00
  WS02006251WS02006249 CONDUIT     76.39     0  01:44      0.67    0.22    0.35
  WS02006249WS02006248 CONDUIT     76.32     0  01:44      0.77    0.42    0.34
  WS02006248WS02006247 CONDUIT     75.99     0  01:43      0.74    0.17    0.39
  WS02006247WS02006245 CONDUIT     75.06     0  01:42      0.70    0.60    0.45
  WS02006245WS02006243 CONDUIT     73.48     0  01:42      0.83    0.22    0.49
  WS02006243WS02006242 CONDUIT     73.10     0  02:00      0.67    0.16    0.62
  WS02006242WS02006240 CONDUIT     74.59     0  02:03      0.55    0.30    0.72
  WS02006240WS02006239 CONDUIT     76.41     0  02:03      0.74    0.24    0.74
  WS02006239WS02006238 CONDUIT     78.07     0  02:04      0.66    0.25    0.85
  WS02006238WS02006235 CONDUIT    119.70     0  05:55      0.98    0.27    0.90
  WS02006235WS02006234 CONDUIT    201.69     0  02:09      0.89    2.13    0.86
  WS02006234WS02006232 CONDUIT    203.48     0  02:08      0.75    0.41    0.94
  WS02006232WS02006231 CONDUIT    204.71     0  02:08      0.69    0.43    0.94
  WS02006231WS02006230 CONDUIT    206.71     0  02:09      1.03    3.14    0.87
  WS02006230WS02006229 CONDUIT    218.91     0  02:09      0.57    4.87    1.00
  WS02006228WS02006109 CONDUIT    540.37     0  01:55      1.08    2.36    1.00
  WS02006116WS02004401 CONDUIT    553.81     0  01:56      0.81    0.76    0.85
  WS02006115WS02006116 CONDUIT    554.27     0  01:56      1.03    0.71    0.77
  WS02006113WS02006111 CONDUIT    563.73     0  01:55      2.47    0.68    0.46
  WS02006112WS02006115 CONDUIT    564.55     0  02:00      0.77    0.33    0.88
  WS02006111WS02006112 CONDUIT    545.49     0  01:55      1.51    0.26    0.67
  WS02006110WS02006113 CONDUIT    541.85     0  01:55      1.28    0.49    0.79
  WS02006109WS02006110 CONDUIT    541.61     0  01:55      1.08    1.04    1.00
  WS02004411WS02004412 CONDUIT    552.70     0  01:58      1.07    0.79    0.70
  WS02004401WS02004402 CONDUIT    553.74     0  01:56      0.76    0.66    0.88
  WS02004413WS02003067 CONDUIT    552.49     0  01:59      1.13    0.24    0.60
  WS02004412WS02004413 CONDUIT    552.55     0  01:59      1.02    0.37    0.79
  WS02004410WS02004411 CONDUIT    552.87     0  01:58      0.96    0.76    0.70
  WS02004409WS02004410 CONDUIT    553.10     0  01:58      0.99    0.72    0.68
  WS02004407WS02004409 CONDUIT    553.44     0  01:57      1.50    0.20    0.49
  WS02004406WS02004407 CONDUIT    553.54     0  01:57      1.06    0.25    0.63
  WS02004405WS02004406 CONDUIT    553.65     0  01:57      0.71    1.09    0.97
  WS02004404WS02004405 CONDUIT    553.62     0  01:57      0.71    5.42    0.97
  WS02004403WS02004404 CONDUIT    553.46     0  01:57      0.72    0.40    0.94
  WS02004402WS02004403 CONDUIT    553.52     0  01:57      0.75    0.80    0.90
  WS02004139WS02001211 CONDUIT    286.47     0  01:29      0.54    0.36    0.54
  WS02004138WS02004139 CONDUIT    285.00     0  05:47      2.39    0.06    0.39
  WS02003067WS02003066 CONDUIT    552.53     0  01:59      1.23    0.18    0.42
  WS02001213WS02003059 CONDUIT    295.49     0  02:27      0.59    0.49    0.73
  WS02001212WS02001213 CONDUIT    294.46     0  02:28      1.19    0.45    0.42
  WS02001211WS02001212 CONDUIT    293.87     0  02:28      0.67    0.22    0.59
  WS02003072WS02003073 CONDUIT    860.00     0  02:03      1.67    1.86    0.46
  WS02003069WS02003072 CONDUIT    860.01     0  02:03      1.58    0.41    0.49
  WS02003060WS02003069 CONDUIT    859.72     0  02:02      1.83    0.34    0.43
  WS02003059WS02003060 CONDUIT    296.89     0  02:26      0.82    0.19    0.63
  HS02004901HS02004770 CONDUIT     17.82     0  01:38      0.06    0.07    0.40
  HS02004876HS02004881 CONDUIT     67.33     0  01:43      0.89    0.72    0.11
  HS02004870HS02004876 CONDUIT     54.05     0  01:43      0.61    0.04    0.13
  HS02004842HS02004848 CONDUIT     10.09     0  01:58      0.05    0.01    0.30
  HS02004837HS02004842 CONDUIT     10.33     0  02:00      0.42    0.01    0.31
  HS02004830HS02004837 CONDUIT     38.21     0  01:51      0.54    0.04    0.10
  HS02004824HS02004830 CONDUIT     38.37     0  01:52      0.57    0.05    0.10
  HS02004817HS02004824 CONDUIT     71.73     0  01:54      0.22    0.03    0.46
  HS02004770HS02004777 CONDUIT     92.16     0  01:38      0.32    0.17    0.41
  HS02004799HS02004480 CONDUIT    230.85     0  01:40      0.78    0.29    0.42
  HS02004792HS02004799 CONDUIT    210.29     0  01:40      0.89    0.13    0.34
  HS02004788HS02004792 CONDUIT    122.00     0  01:40      1.02    0.08    0.17
  HS02004785HS02004788 CONDUIT     92.09     0  01:40      0.67    0.69    0.20
  HS02004777HS02004785 CONDUIT     91.99     0  01:39      0.39    0.11    0.34
  HS02004480HS02004478 CONDUIT    273.63     0  01:41      1.21    1.15    0.32
  HS02004479HS02004480 CONDUIT     43.47     0  01:42      0.30    0.04    0.41
  HS02004862HS02004870 CONDUIT     40.54     0  01:45      0.62    0.04    0.09
  HS02004848HS02004852 CONDUIT     17.93     0  01:51      0.42    0.02    0.06
  HS02004856HS02004862 CONDUIT     27.96     0  01:44      0.46    0.03    0.09
  HS02004852HS02004856 CONDUIT     17.92     0  01:52      0.22    0.02    0.12
  HS02004802HS02004478 CONDUIT     96.20     0  01:53      0.42    0.08    0.34
  HS02004478WS02006287 CONDUIT    366.22     0  01:42      1.67    0.10    0.24
  HS02004817HS02004807 CONDUIT     72.77     0  01:55      0.17    0.04    0.61
  HS02004807HS02004802 CONDUIT     95.92     0  01:53      0.36    0.18    0.39
  YS02001759YS02001757 CONDUIT    534.61     0  02:18      0.68    0.38    1.00
  YS02001762YS02001759 CONDUIT    273.47     0  02:18      0.35    0.32    1.00
  YS02001765YS02001762 CONDUIT    273.09     0  02:18      0.35    0.26    1.00
  YS02001770YS02001767 CONDUIT    272.03     0  02:19      0.42    1.08    1.00
  YS02001774YS02001770 CONDUIT    442.54     0  02:50      0.56    0.28    1.00
  YS02001779YS02001774 CONDUIT    442.54     0  02:49      0.56    0.22    1.00
  YS02001649YS02001757 CONDUIT    842.53     0  02:14      1.07    0.51    1.00
  YS02001767YS02001765 CONDUIT    272.69     0  02:18      0.38    0.34    1.00
  YS02006561YS02001783 CONDUIT    899.35     0  02:30      2.12    0.47    1.00
  YS02001783YS02001784 CONDUIT    899.29     0  02:30      1.79    1.24    1.00
  YS02001784YS02001785 CONDUIT    900.31     0  02:30      1.79    2.10    1.00
  YS02001788YS02001790 CONDUIT    900.47     0  02:30      2.30    0.66    1.00
  YS02001790YS02001791 CONDUIT    900.55     0  02:30      2.74    0.98    1.00
  YS02001791YS02001793 CONDUIT    900.67     0  02:30      4.13    0.39    1.00
  YS02001910YS02001907 CONDUIT    320.22     0  03:05      0.49    0.18    1.00
  YS02001786YS02001788 CONDUIT    900.34     0  02:30      2.21    1.73    1.00
  YS02001915YS02001910 CONDUIT    320.23     0  03:05      0.58    0.16    1.00
  YS02001918YS02001915 CONDUIT    145.06     0  03:07      0.44    0.08    1.00
  YS02001923YS02001920 CONDUIT    132.35     0  02:51      0.68    0.06    0.90
  YS02001926YS02001923 CONDUIT    116.15     0  02:51      0.78    0.17    0.61
  YS02001929YS02001926 CONDUIT    124.27     0  02:52      0.83    0.06    0.49
  YS02001920YS02001918 CONDUIT    134.99     0  02:52      0.67    0.13    1.00
  YS02001629YS02163301 CONDUIT    207.82     0  02:01      0.26    0.26    1.00
  YS02001619YS02001622 CONDUIT    191.27     0  02:29      0.73    0.28    1.00
  YS02001622YS02001625 CONDUIT    202.33     0  01:47      0.36    0.11    1.00
  YS02001625YS02001629 CONDUIT    201.80     0  01:47      0.30    0.10    1.00
  YS02163301YS02001633 CONDUIT    207.90     0  02:01      0.26    0.20    1.00
  YS02163601YS02164001 CONDUIT    392.33     0  02:15      0.50    0.35    1.00
  YS02164001YS02001641 CONDUIT    392.85     0  02:15      0.50    0.54    1.00
  YS02001641YS02001644 CONDUIT    393.22     0  02:15      0.50    1.27    1.00
  YS02001647YS02001649 CONDUIT    595.91     0  02:15      0.76    0.31    1.00
  YS02006553YS02006556 CONDUIT    619.80     0  02:33      0.79    0.53    1.00
  YS02006556YS02006558 CONDUIT    620.00     0  02:33      0.79    0.49    1.00
  YSB6556YSB1171       CONDUIT     24.42     0  01:43      0.09    0.03    0.68
  YS02001907YS02006553 CONDUIT    619.88     0  02:33      0.69    0.73    1.00
  YS02006558YS02006561 CONDUIT    899.23     0  02:30      3.18    1.99    1.00
  YS02001633YS02163601 CONDUIT    391.96     0  02:15      0.50    0.41    1.00
  YS02001644YS02001647 CONDUIT    595.53     0  02:15      0.76    0.35    1.00
  YS02001745YS02001748 CONDUIT    606.98     0  02:03      1.64    0.23    0.95
  YS02001748YS02001751 CONDUIT    329.39     0  01:56      1.22    0.17    1.00
  YS02001751YS02001754 CONDUIT    235.68     0  02:28      1.05    0.11    1.00
  YS02001754YS02001757 CONDUIT    235.86     0  02:28      0.33    0.10    1.00
  YS02001882YS02001884 CONDUIT     17.06     0  01:49      0.15    0.02    1.00
  YS02001884YS02001887 CONDUIT     29.51     0  01:49      0.11    0.04    1.00
  YS02001890YS02001895 CONDUIT    338.65     0  02:11      0.48    0.16    1.00
  YS02001895YS02001898 CONDUIT    340.01     0  02:12      0.61    0.59    1.00
  YS02001898YS02001901 CONDUIT    338.69     0  02:12      0.53    0.22    1.00
  YS02001901YS02001904 CONDUIT    338.36     0  02:12      0.48    0.52    1.00
  YS02001904YS02001907 CONDUIT    338.16     0  02:12      0.43    0.12    1.00
  YS02001887YS02001890 CONDUIT    337.93     0  02:11      0.44    0.58    1.00
  YS02001652YS02001649 CONDUIT    299.53     0  02:01      0.61    0.15    1.00
  YS02001655YS02001652 CONDUIT    299.21     0  02:01      1.11    0.15    1.00
  YS02001658YS02001655 CONDUIT    393.90     0  01:55      1.42    0.17    1.00
  YS02001661YS02001658 CONDUIT    634.16     0  02:00      1.73    0.25    1.00
  YS02001664YS02001661 CONDUIT    633.81     0  02:18      1.64    0.20    0.73
  YSB1154YSB6556       CONDUIT     24.02     0  01:41      0.16    0.04    0.57
  YSB1174YSB1171       CONDUIT     20.01     0  01:36      0.07    0.03    0.68
  YSB1171HS02004479    CONDUIT     43.16     0  01:41      0.54    0.03    0.54
  HS02004881HS02006253 CONDUIT     74.61     0  01:43      2.14    0.01    0.05
  YS02001793JiankangQianchi CONDUIT   1154.92     0  04:40      1.93    0.09    1.00
  YS02001757CaochengTiaoxuchi CONDUIT   1562.99     0  02:15      2.44    0.69    1.00
  WSF200WS02003060     CONDUIT    552.61     0  01:59      1.66    0.12    0.34
  1                    CONDUIT    861.81     0  02:04      3.20    0.30    0.38
  2                    CONDUIT      0.00     0  00:00      0.00    0.00    0.00
  3                    CONDUIT    576.33     0  01:47     10.26    0.92    0.85
  4                    CONDUIT      0.00     0  00:00      0.00    0.00    0.00
  CC-Pump-1            PUMP         0.00     0  00:00              0.00
  CC-Pump-2            PUMP         0.00     0  00:00              0.00
  JK-Pump-1            PUMP       300.00     0  01:37              1.00
  JK-Pump-2            PUMP       300.00     0  01:42              1.00
  XR-Pump-1            PUMP        95.00     0  00:00              1.00
  XR-Pump-2            PUMP        95.00     0  00:25              1.00
  XR-Pump-3            PUMP        95.00     0  01:27              1.00
  XR-Pump-4            PUMP         0.00     0  00:00              0.00
  
  
  ***************************
  Flow Classification Summary
  ***************************
  
  -------------------------------------------------------------------------------------
                      Adjusted    ---------- Fraction of Time in Flow Class ---------- 
                       /Actual         Up    Down  Sub   Sup   Up    Down  Norm  Inlet 
  Conduit               Length    Dry  Dry   Dry   Crit  Crit  Crit  Crit  Ltd   Ctrl  
  -------------------------------------------------------------------------------------
  WS02003066WSF200        1.00   0.06  0.00  0.00  0.00  0.94  0.00  0.00  0.70  0.00
  WS02006287WS02006284    1.00   0.02  0.01  0.00  0.48  0.49  0.00  0.00  0.72  0.00
  WS02006284WS02006280    1.00   0.03  0.00  0.00  0.00  0.00  0.00  0.97  0.00  0.00
  WS02006280WS02006229    1.00   0.03  0.00  0.00  0.00  0.00  0.00  0.97  0.00  0.00
  WS02006229WS02006228    1.00   0.00  0.00  0.00  1.00  0.00  0.00  0.00  0.00  0.00
  WS02006256WS02006235    1.00   0.04  0.00  0.00  0.94  0.02  0.00  0.00  0.00  0.00
  WS02006253WS02006251    1.00   0.01  0.01  0.00  0.97  0.00  0.00  0.00  0.00  0.00
  WS02006252WS02006251    1.00   1.00  0.00  0.00  0.00  0.00  0.00  0.00  0.00  0.00
  WS02006251WS02006249    1.00   0.00  0.00  0.00  1.00  0.00  0.00  0.00  0.83  0.00
  WS02006249WS02006248    1.00   0.00  0.00  0.00  0.22  0.00  0.78  0.00  0.00  0.00
  WS02006248WS02006247    1.00   0.00  0.00  0.00  0.99  0.00  0.00  0.01  0.72  0.00
  WS02006247WS02006245    1.00   0.00  0.00  0.00  0.98  0.00  0.00  0.02  0.00  0.00
  WS02006245WS02006243    1.00   0.01  0.00  0.00  0.96  0.00  0.00  0.03  0.07  0.00
  WS02006243WS02006242    1.00   0.01  0.00  0.00  0.96  0.00  0.00  0.03  0.22  0.00
  WS02006242WS02006240    1.00   0.01  0.02  0.00  0.96  0.00  0.01  0.00  0.00  0.00
  WS02006240WS02006239    1.00   0.03  0.00  0.00  0.95  0.00  0.00  0.01  0.05  0.00
  WS02006239WS02006238    1.00   0.03  0.00  0.00  0.96  0.00  0.00  0.01  0.00  0.00
  WS02006238WS02006235    1.00   0.03  0.00  0.00  0.96  0.00  0.00  0.00  0.00  0.00
  WS02006235WS02006234    1.00   0.04  0.00  0.00  0.95  0.00  0.01  0.00  0.00  0.00
  WS02006234WS02006232    1.00   0.04  0.00  0.00  0.96  0.00  0.00  0.00  0.00  0.00
  WS02006232WS02006231    1.00   0.04  0.00  0.00  0.96  0.00  0.00  0.00  0.00  0.00
  WS02006231WS02006230    1.00   0.04  0.00  0.00  0.36  0.00  0.61  0.00  0.00  0.00
  WS02006230WS02006229    1.00   0.00  0.00  0.00  0.99  0.00  0.00  0.01  0.01  0.00
  WS02006228WS02006109    1.00   0.00  0.00  0.00  1.00  0.00  0.00  0.00  0.00  0.00
  WS02006116WS02004401    1.00   0.02  0.00  0.00  0.98  0.00  0.00  0.00  0.00  0.00
  WS02006115WS02006116    1.00   0.02  0.00  0.00  0.96  0.00  0.00  0.02  0.00  0.00
  WS02006113WS02006111    1.00   0.01  0.00  0.00  0.01  0.98  0.00  0.00  0.14  0.00
  WS02006112WS02006115    1.00   0.01  0.01  0.00  0.98  0.00  0.00  0.00  0.00  0.00
  WS02006111WS02006112    1.00   0.01  0.00  0.00  0.98  0.00  0.00  0.00  0.92  0.00
  WS02006110WS02006113    1.00   0.00  0.01  0.00  0.99  0.00  0.00  0.00  0.00  0.00
  WS02006109WS02006110    1.00   0.00  0.00  0.00  1.00  0.00  0.00  0.00  0.00  0.00
  WS02004411WS02004412    1.00   0.04  0.00  0.00  0.95  0.00  0.00  0.00  0.00  0.00
  WS02004401WS02004402    1.00   0.02  0.00  0.00  0.98  0.00  0.00  0.00  0.04  0.00
  WS02004413WS02003067    1.00   0.05  0.01  0.00  0.00  0.00  0.95  0.00  0.00  0.00
  WS02004412WS02004413    1.00   0.05  0.00  0.00  0.95  0.00  0.00  0.00  0.00  0.00
  WS02004410WS02004411    1.00   0.04  0.00  0.00  0.96  0.00  0.00  0.00  0.00  0.00
  WS02004409WS02004410    1.00   0.04  0.00  0.00  0.96  0.00  0.00  0.00  0.00  0.00
  WS02004407WS02004409    1.00   0.04  0.00  0.00  0.95  0.01  0.00  0.00  0.80  0.00
  WS02004406WS02004407    1.00   0.00  0.04  0.00  0.96  0.00  0.00  0.00  0.00  0.00
  WS02004405WS02004406    1.00   0.00  0.00  0.00  1.00  0.00  0.00  0.00  0.04  0.00
  WS02004404WS02004405    1.00   0.00  0.00  0.00  1.00  0.00  0.00  0.00  0.01  0.00
  WS02004403WS02004404    1.00   0.00  0.02  0.00  0.98  0.00  0.00  0.00  0.04  0.00
  WS02004402WS02004403    1.00   0.02  0.00  0.00  0.98  0.00  0.00  0.00  0.00  0.00
  WS02004139WS02001211    1.00   0.00  0.00  0.00  1.00  0.00  0.00  0.00  0.00  0.00
  WS02004138WS02004139    1.00   0.00  0.00  0.00  1.00  0.00  0.00  0.00  1.00  0.00
  WS02003067WS02003066    1.00   0.05  0.00  0.00  0.94  0.00  0.00  0.00  0.00  0.00
  WS02001213WS02003059    1.00   0.00  0.00  0.00  1.00  0.00  0.00  0.00  0.00  0.00
  WS02001212WS02001213    1.00   0.00  0.00  0.00  0.58  0.00  0.42  0.00  0.00  0.00
  WS02001211WS02001212    1.00   0.00  0.00  0.00  1.00  0.00  0.00  0.00  0.00  0.00
  WS02003072WS02003073    1.00   0.00  0.00  0.00  0.00  0.00  0.00  1.00  0.00  0.00
  WS02003069WS02003072    1.00   0.00  0.00  0.00  1.00  0.00  0.00  0.00  0.26  0.00
  WS02003060WS02003069    1.00   0.00  0.00  0.00  0.99  0.01  0.00  0.00  0.15  0.00
  WS02003059WS02003060    1.00   0.00  0.00  0.00  1.00  0.00  0.00  0.00  0.02  0.00
  HS02004901HS02004770    1.00   0.02  0.00  0.00  0.98  0.00  0.00  0.00  0.00  0.00
  HS02004876HS02004881    1.00   0.00  0.00  0.00  0.89  0.11  0.00  0.00  0.00  0.00
  HS02004870HS02004876    1.00   0.00  0.00  0.00  1.00  0.00  0.00  0.00  0.95  0.00
  HS02004842HS02004848    1.00   0.00  0.02  0.00  0.98  0.00  0.00  0.00  0.59  0.00
  HS02004837HS02004842    1.00   0.00  0.00  0.00  1.00  0.00  0.00  0.00  0.11  0.00
  HS02004830HS02004837    1.00   0.00  0.00  0.00  1.00  0.00  0.00  0.00  0.99  0.00
  HS02004824HS02004830    1.00   0.00  0.00  0.00  1.00  0.00  0.00  0.00  0.00  0.00
  HS02004817HS02004824    1.00   0.00  0.00  0.00  1.00  0.00  0.00  0.00  1.00  0.00
  HS02004770HS02004777    1.00   0.00  0.02  0.00  0.98  0.00  0.00  0.00  0.02  0.00
  HS02004799HS02004480    1.00   0.00  0.01  0.00  0.97  0.00  0.02  0.00  0.00  0.00
  HS02004792HS02004799    1.00   0.00  0.00  0.00  1.00  0.00  0.00  0.00  0.98  0.00
  HS02004788HS02004792    1.00   0.00  0.00  0.00  1.00  0.00  0.00  0.00  0.98  0.00
  HS02004785HS02004788    1.00   0.00  0.00  0.00  1.00  0.00  0.00  0.00  0.00  0.00
  HS02004777HS02004785    1.00   0.00  0.00  0.00  1.00  0.00  0.00  0.00  0.12  0.00
  HS02004480HS02004478    1.00   0.03  0.00  0.00  0.55  0.00  0.00  0.43  0.00  0.00
  HS02004479HS02004480    1.00   0.01  0.00  0.00  0.99  0.00  0.00  0.00  0.11  0.00
  HS02004862HS02004870    1.00   0.00  0.00  0.00  1.00  0.00  0.00  0.00  0.03  0.00
  HS02004848HS02004852    1.00   0.02  0.00  0.00  0.98  0.00  0.00  0.00  0.78  0.00
  HS02004856HS02004862    1.00   0.00  0.03  0.00  0.97  0.00  0.00  0.00  0.83  0.00
  HS02004852HS02004856    1.00   0.02  0.00  0.00  0.97  0.00  0.00  0.00  0.86  0.00
  HS02004802HS02004478    1.00   0.03  0.00  0.00  0.97  0.00  0.00  0.00  0.02  0.00
  HS02004478WS02006287    1.00   0.03  0.00  0.00  0.69  0.28  0.00  0.00  0.69  0.00
  HS02004817HS02004807    1.00   0.00  0.02  0.00  0.98  0.00  0.00  0.00  0.01  0.00
  HS02004807HS02004802    1.00   0.02  0.00  0.00  0.97  0.00  0.00  0.00  0.00  0.00
  YS02001759YS02001757    1.00   0.00  0.00  0.00  1.00  0.00  0.00  0.00  0.16  0.00
  YS02001762YS02001759    1.00   0.00  0.00  0.00  1.00  0.00  0.00  0.00  0.03  0.00
  YS02001765YS02001762    1.00   0.00  0.00  0.00  1.00  0.00  0.00  0.00  0.13  0.00
  YS02001770YS02001767    1.00   0.00  0.00  0.00  1.00  0.00  0.00  0.00  0.00  0.00
  YS02001774YS02001770    1.00   0.00  0.03  0.00  0.97  0.00  0.00  0.00  0.03  0.00
  YS02001779YS02001774    1.00   0.00  0.00  0.00  1.00  0.00  0.00  0.00  0.17  0.00
  YS02001649YS02001757    1.00   0.00  0.00  0.00  1.00  0.00  0.00  0.00  0.16  0.00
  YS02001767YS02001765    1.00   0.00  0.00  0.00  1.00  0.00  0.00  0.00  0.00  0.00
  YS02006561YS02001783    1.00   0.03  0.00  0.00  0.39  0.58  0.00  0.00  0.51  0.00
  YS02001783YS02001784    1.00   0.00  0.03  0.00  0.97  0.00  0.00  0.00  0.00  0.00
  YS02001784YS02001785    1.00   0.00  0.00  0.00  1.00  0.00  0.00  0.00  0.16  0.00
  YS02001788YS02001790    1.00   0.00  0.00  0.00  0.43  0.57  0.00  0.00  0.50  0.00
  YS02001790YS02001791    1.00   0.00  0.00  0.00  0.41  0.59  0.00  0.00  0.56  0.00
  YS02001791YS02001793    1.00   0.00  0.00  0.00  0.67  0.33  0.00  0.00  0.28  0.00
  YS02001910YS02001907    1.00   0.00  0.00  0.00  0.99  0.00  0.00  0.00  0.12  0.00
  YS02001786YS02001788    1.00   0.00  0.00  0.00  0.41  0.59  0.00  0.00  0.00  0.00
  YS02001915YS02001910    1.00   0.00  0.00  0.00  0.99  0.01  0.00  0.00  0.14  0.00
  YS02001918YS02001915    1.00   0.00  0.00  0.00  1.00  0.00  0.00  0.00  0.57  0.00
  YS02001923YS02001920    1.00   0.00  0.00  0.00  1.00  0.00  0.00  0.00  0.83  0.00
  YS02001926YS02001923    1.00   0.00  0.01  0.00  0.22  0.00  0.77  0.00  0.00  0.00
  YS02001929YS02001926    1.00   0.00  0.02  0.00  0.98  0.00  0.00  0.00  0.79  0.00
  YS02001920YS02001918    1.00   0.00  0.00  0.00  1.00  0.00  0.00  0.00  0.00  0.00
  YS02001629YS02163301    1.00   0.03  0.00  0.00  0.97  0.00  0.00  0.00  0.00  0.00
  YS02001619YS02001622    1.00   0.02  0.00  0.00  0.98  0.00  0.00  0.00  0.00  0.00
  YS02001622YS02001625    1.00   0.03  0.00  0.00  0.97  0.00  0.00  0.00  0.04  0.00
  YS02001625YS02001629    1.00   0.03  0.01  0.00  0.96  0.00  0.01  0.00  0.00  0.00
  YS02163301YS02001633    1.00   0.00  0.03  0.00  0.97  0.00  0.00  0.00  0.00  0.00
  YS02163601YS02164001    1.00   0.00  0.02  0.00  0.98  0.00  0.00  0.00  0.00  0.00
  YS02164001YS02001641    1.00   0.00  0.01  0.00  0.98  0.00  0.00  0.00  0.06  0.00
  YS02001641YS02001644    1.00   0.00  0.00  0.00  1.00  0.00  0.00  0.00  0.00  0.00
  YS02001647YS02001649    1.00   0.00  0.03  0.00  0.97  0.00  0.00  0.00  0.01  0.00
  YS02006553YS02006556    1.00   0.00  0.00  0.00  1.00  0.00  0.00  0.00  0.03  0.00
  YS02006556YS02006558    1.00   0.00  0.00  0.00  1.00  0.00  0.00  0.00  0.00  0.00
  YSB6556YSB1171          1.00   0.01  0.02  0.00  0.98  0.00  0.00  0.00  0.00  0.00
  YS02001907YS02006553    1.00   0.00  0.00  0.00  1.00  0.00  0.00  0.00  0.00  0.00
  YS02006558YS02006561    1.00   0.03  0.00  0.00  0.28  0.68  0.00  0.00  0.50  0.00
  YS02001633YS02163601    1.00   0.00  0.00  0.00  1.00  0.00  0.00  0.00  0.15  0.00
  YS02001644YS02001647    1.00   0.00  0.03  0.00  0.97  0.00  0.00  0.00  0.00  0.00
  YS02001745YS02001748    1.00   0.00  0.00  0.00  0.94  0.00  0.00  0.06  0.03  0.00
  YS02001748YS02001751    1.00   0.00  0.00  0.00  0.98  0.02  0.00  0.00  0.14  0.00
  YS02001751YS02001754    1.00   0.00  0.00  0.00  0.96  0.00  0.00  0.04  0.01  0.00
  YS02001754YS02001757    1.00   0.00  0.00  0.00  1.00  0.00  0.00  0.00  0.17  0.00
  YS02001882YS02001884    1.00   0.03  0.00  0.00  0.97  0.00  0.00  0.00  0.00  0.00
  YS02001884YS02001887    1.00   0.01  0.01  0.00  0.98  0.00  0.00  0.00  0.00  0.00
  YS02001890YS02001895    1.00   0.00  0.03  0.00  0.97  0.00  0.00  0.00  0.00  0.00
  YS02001895YS02001898    1.00   0.03  0.00  0.00  0.96  0.00  0.01  0.00  0.00  0.00
  YS02001898YS02001901    1.00   0.03  0.00  0.00  0.97  0.00  0.00  0.00  0.01  0.00
  YS02001901YS02001904    1.00   0.03  0.00  0.00  0.97  0.00  0.00  0.00  0.00  0.00
  YS02001904YS02001907    1.00   0.00  0.03  0.00  0.97  0.00  0.00  0.00  0.00  0.00
  YS02001887YS02001890    1.00   0.00  0.00  0.00  0.99  0.00  0.01  0.00  0.00  0.00
  YS02001652YS02001649    1.00   0.00  0.00  0.00  1.00  0.00  0.00  0.00  0.15  0.00
  YS02001655YS02001652    1.00   0.00  0.00  0.00  0.96  0.00  0.00  0.04  0.01  0.00
  YS02001658YS02001655    1.00   0.00  0.03  0.00  0.95  0.02  0.00  0.00  0.02  0.00
  YS02001661YS02001658    1.00   0.03  0.00  0.00  0.94  0.04  0.00  0.00  0.03  0.00
  YS02001664YS02001661    1.00   0.02  0.00  0.00  0.90  0.07  0.00  0.00  0.14  0.00
  YSB1154YSB6556          1.00   0.02  0.00  0.00  0.98  0.00  0.00  0.00  0.01  0.00
  YSB1174YSB1171          1.00   0.01  0.01  0.00  0.98  0.00  0.00  0.00  0.00  0.00
  YSB1171HS02004479       1.00   0.01  0.00  0.00  0.99  0.00  0.00  0.00  0.10  0.00
  HS02004881HS02006253    1.00   0.01  0.00  0.00  0.00  0.00  0.00  0.99  0.00  0.00
  YS02001793JiankangQianchi    1.00   0.00  0.00  0.00  1.00  0.00  0.00  0.00  0.44  0.00
  YS02001757CaochengTiaoxuchi    1.00   0.00  0.04  0.00  0.94  0.02  0.00  0.00  0.00  0.00
  WSF200WS02003060        1.00   0.00  0.06  0.00  0.94  0.00  0.00  0.00  0.60  0.00
  1                       1.00   0.00  0.00  0.00  0.00  1.00  0.00  0.00  0.42  0.00
  2                       1.00   1.00  0.00  0.00  0.00  0.00  0.00  0.00  0.00  0.00
  3                       1.00   0.10  0.00  0.00  0.00  0.90  0.00  0.00  0.01  0.00
  4                       1.00   1.00  0.00  0.00  0.00  0.00  0.00  0.00  0.00  0.00
  
  
  *************************
  Conduit Surcharge Summary
  *************************
  
  ----------------------------------------------------------------------------
                                                           Hours        Hours 
                         --------- Hours Full --------   Above Full   Capacity
  Conduit                Both Ends  Upstream  Dnstream   Normal Flow   Limited
  ----------------------------------------------------------------------------
  WS02006229WS02006228        0.89      0.92      0.89      1.53         0.89
  WS02006256WS02006235        4.50      4.52      6.27      4.70         0.01
  WS02006235WS02006234        0.01      0.01      0.01      4.55         0.01
  WS02006234WS02006232        0.01      0.01      0.25      0.01         0.01
  WS02006232WS02006231        0.01      0.01      0.25      0.01         0.01
  WS02006231WS02006230        0.01      0.01      0.01      4.83         0.01
  WS02006230WS02006229        1.10      1.18      1.10      5.60         1.08
  WS02006228WS02006109        0.90      1.00      0.90      1.93         0.90
  WS02006112WS02006115        0.01      0.01      0.50      0.01         0.01
  WS02006111WS02006112        0.01      0.01      1.58      0.01         0.01
  WS02006110WS02006113        0.01      0.01      0.96      0.01         0.01
  WS02006109WS02006110        0.30      0.30      1.00      0.30         0.01
  WS02004405WS02004406        0.01      0.01      0.01      0.42         0.01
  WS02004404WS02004405        0.01      0.01      0.01      4.62         0.01
  WS02003072WS02003073        0.01      0.01      0.01      3.57         0.01
  HS02004480HS02004478        0.01      0.01      0.01      0.41         0.01
  YS02001759YS02001757        6.15      6.15      6.19      0.01         0.01
  YS02001762YS02001759        6.15      6.15      6.15      0.01         0.01
  YS02001765YS02001762        6.13      6.13      6.15      0.01         0.01
  YS02001770YS02001767        6.13      6.13      6.13      0.31         0.63
  YS02001774YS02001770        6.11      6.11      6.14      0.01         0.01
  YS02001779YS02001774        5.96      5.96      6.14      0.01         0.01
  YS02001649YS02001757        6.15      6.15      6.19      0.01         0.01
  YS02001767YS02001765        6.13      6.13      6.13      0.01         0.01
  YS02006561YS02001783        0.59      0.59      1.46      0.01         0.01
  YS02001783YS02001784        1.46      1.46      1.49      1.35         1.18
  YS02001784YS02001785        1.46      1.49      1.46      2.21         1.46
  YS02001788YS02001790        1.44      1.44      1.66      0.01         0.01
  YS02001790YS02001791        1.66      1.66      1.71      0.01         0.03
  YS02001791YS02001793        1.71      1.71      2.10      0.01         0.01
  YS02001910YS02001907        1.17      1.17      1.68      0.01         0.01
  YS02001786YS02001788        1.44      1.46      1.44      1.90         1.44
  YS02001915YS02001910        0.89      0.89      1.17      0.01         0.01
  YS02001918YS02001915        0.01      0.01      0.89      0.01         0.01
  YS02001923YS02001920        0.01      0.01      0.24      0.01         0.01
  YS02001920YS02001918        0.01      0.01      0.24      0.01         0.01
  YS02001629YS02163301        6.10      6.10      6.11      0.01         0.01
  YS02001619YS02001622        5.86      5.86      5.90      0.01         0.01
  YS02001622YS02001625        5.90      5.90      6.09      0.01         0.01
  YS02001625YS02001629        5.88      5.88      6.09      0.01         0.01
  YS02163301YS02001633        6.11      6.11      6.12      0.01         0.01
  YS02163601YS02164001        6.12      6.12      6.15      0.01         0.01
  YS02164001YS02001641        6.12      6.12      6.13      0.01         0.02
  YS02001641YS02001644        6.13      6.13      6.13      1.39         1.38
  YS02001647YS02001649        6.08      6.08      6.15      0.01         0.01
  YS02006553YS02006556        1.42      1.42      1.73      0.01         0.01
  YS02006556YS02006558        1.59      1.59      1.80      0.01         0.01
  YS02001907YS02006553        2.23      2.23      2.41      0.01         0.01
  YS02006558YS02006561        1.04      1.36      1.04      2.10         1.04
  YS02001633YS02163601        6.12      6.12      6.15      0.01         0.01
  YS02001644YS02001647        6.08      6.08      6.13      0.01         0.01
  YS02001745YS02001748        0.01      0.01      5.65      0.01         0.01
  YS02001748YS02001751        5.72      5.72      5.83      0.01         0.01
  YS02001751YS02001754        5.83      5.83      5.96      0.01         0.01
  YS02001754YS02001757        6.06      6.06      6.19      0.01         0.01
  YS02001882YS02001884        0.91      0.91      0.97      0.01         0.01
  YS02001884YS02001887        1.04      1.04      1.08      0.01         0.01
  YS02001890YS02001895        0.86      0.86      1.20      0.01         0.01
  YS02001895YS02001898        0.83      0.83      0.86      0.01         0.01
  YS02001898YS02001901        0.87      0.87      1.03      0.01         0.01
  YS02001901YS02001904        1.00      1.00      1.03      0.01         0.01
  YS02001904YS02001907        1.00      1.00      1.77      0.01         0.01
  YS02001887YS02001890        1.12      1.12      1.15      0.01         0.01
  YS02001652YS02001649        6.09      6.09      6.15      0.01         0.01
  YS02001655YS02001652        5.87      5.87      6.06      0.01         0.01
  YS02001658YS02001655        5.69      5.69      5.87      0.01         0.01
  YS02001661YS02001658        0.23      0.23      5.69      0.01         0.01
  YS02001664YS02001661        0.01      0.01      1.01      0.01         0.01
  YS02001793JiankangQianchi        1.88      1.88      7.82      0.01         0.01
  YS02001757CaochengTiaoxuchi        5.55      5.55      6.19      0.01         0.01
  3                           0.01      0.01      0.01      0.01         0.01
  
  
  ***************
  Pumping Summary
  ***************
  
  ---------------------------------------------------------------------------------------------------------
                                                  Min       Avg       Max     Total     Power    % Time Off
                        Percent   Number of      Flow      Flow      Flow    Volume     Usage    Pump Curve
  Pump                 Utilized   Start-Ups       LPS       LPS       LPS  10^6 ltr     Kw-hr    Low   High
  ---------------------------------------------------------------------------------------------------------
  CC-Pump-1                0.00           0      0.00      0.00      0.00     0.000      0.00    0.0    0.0
  CC-Pump-2                0.00           0      0.00      0.00      0.00     0.000      0.00    0.0    0.0
  JK-Pump-1               60.22           9      0.00    300.00    300.00     5.094     33.60    0.0    0.0
  JK-Pump-2               28.69           7      0.00    300.00    300.00     2.427     11.63    0.0    0.0
  XR-Pump-1              100.00           1      0.00     95.00     95.00     2.679     15.38    0.0    0.0
  XR-Pump-2               94.70           1      0.00     95.00     95.00     2.537     13.95    0.0    0.0
  XR-Pump-3               80.74           1      0.00     95.00     95.00     2.163     11.01    0.0    0.0
  XR-Pump-4                0.00           0      0.00      0.00      0.00     0.000      0.00    0.0    0.0
  

  Analysis begun on:  Wed Jan  5 15:46:18 2022
  Analysis ended on:  Wed Jan  5 15:46:22 2022
  Total elapsed time: 00:00:04