
  EPA STORM WATER MANAGEMENT MODEL - VERSION 5.1 (Build 5.3.0.dev0)
  --------------------------------------------------------------

  WARNING 04: minimum elevation drop used for Conduit WS02004404WS02004405
  WARNING 03: negative offset ignored for Link YS02001904YS02001907
  
  *********************************************************
  NOTE: The summary statistics displayed in this report are
  based on results found at every computational time step,  
  not just on results from each reporting time step.
  *********************************************************
  
  ****************
  Analysis Options
  ****************
  Flow Units ............... LPS
  Process Models:
    Rainfall/Runoff ........ YES
    RDII ................... NO
    Snowmelt ............... NO
    Groundwater ............ NO
    Flow Routing ........... YES
    Ponding Allowed ........ NO
    Water Quality .......... NO
  Infiltration Method ...... HORTON
  Flow Routing Method ...... DYNWAVE
  Surcharge Method ......... EXTRAN
  Starting Date ............ 08/28/2015 08:00:00
  Ending Date .............. 08/28/2015 15:50:00
  Antecedent Dry Days ...... 8.0
  Report Time Step ......... 00:01:00
  Wet Time Step ............ 00:01:00
  Dry Time Step ............ 00:01:00
  Routing Time Step ........ 5.00 sec
  Variable Time Step ....... YES
  Maximum Trials ........... 8
  Number of Threads ........ 4
  Head Tolerance ........... 0.001500 m
  
  
  **************************        Volume         Depth
  Runoff Quantity Continuity     hectare-m            mm
  **************************     ---------       -------
  Total Precipitation ......         5.151        11.277
  Evaporation Loss .........         0.000         0.000
  Infiltration Loss ........         1.323         2.897
  Surface Runoff ...........         2.817         6.167
  Final Storage ............         1.011         2.215
  Continuity Error (%) .....        -0.015
  
  
  **************************        Volume        Volume
  Flow Routing Continuity        hectare-m      10^6 ltr
  **************************     ---------     ---------
  Dry Weather Inflow .......         0.616         6.165
  Wet Weather Inflow .......         2.816        28.157
  Groundwater Inflow .......         0.000         0.000
  RDII Inflow ..............         0.000         0.000
  External Inflow ..........         0.102         1.024
  External Outflow .........         1.568        15.678
  Flooding Loss ............         1.452        14.519
  Evaporation Loss .........         0.000         0.000
  Exfiltration Loss ........         0.000         0.000
  Initial Stored Volume ....         0.076         0.761
  Final Stored Volume ......         0.630         6.296
  Continuity Error (%) .....        -1.073
  
  
  *************************
  Highest Continuity Errors
  *************************
  Node HS02004842 (17.03%)
  Node YS02001884 (10.77%)
  Node JK-storage (-4.60%)
  Node YSB1171 (3.39%)
  Node HS02004817 (3.15%)
  
  
  ***************************
  Time-Step Critical Elements
  ***************************
  Link 3 (87.46%)
  Link YS02001793JiankangQianchi (6.25%)
  Link WS02006280WS02006229 (1.12%)
  
  
  ********************************
  Highest Flow Instability Indexes
  ********************************
  Link WS02006113WS02006111 (51)
  Link YS02163301YS02001633 (50)
  Link YS02001629YS02163301 (49)
  Link YS02163601YS02164001 (48)
  Link YS02001619YS02001622 (48)
  
  
  *************************
  Routing Time Step Summary
  *************************
  Minimum Time Step           :     0.50 sec
  Average Time Step           :     0.98 sec
  Maximum Time Step           :     5.00 sec
  Percent in Steady State     :     0.00
  Average Iterations per Step :     4.84
  Percent Not Converging      :    24.03
  
  
  ***************************
  Subcatchment Runoff Summary
  ***************************
  
  ------------------------------------------------------------------------------------------------------------------------------
                            Total      Total      Total      Total     Imperv       Perv      Total       Total     Peak  Runoff
                           Precip      Runon       Evap      Infil     Runoff     Runoff     Runoff      Runoff   Runoff   Coeff
  Subcatchment                 mm         mm         mm         mm         mm         mm         mm    10^6 ltr      LPS
  ------------------------------------------------------------------------------------------------------------------------------
  sub0                      11.28       0.00       0.00       0.79       9.22       0.00       9.22        0.01     1.44   0.818
  sub1                      11.28       0.00       0.00       1.24       8.78       0.00       8.78        0.06    10.11   0.778
  sub2                      11.28       0.00       0.00       4.17       6.20       0.00       6.20        0.06     9.79   0.549
  sub3                      11.28       0.00       0.00       4.17       6.16       0.00       6.16        0.14    22.44   0.546
  sub4                      11.28       0.00       0.00       1.24       8.63       0.00       8.63        0.18    27.35   0.765
  sub5                      11.28       0.00       0.00       0.79       9.17       0.00       9.17        0.10    18.00   0.813
  sub7                      11.28       0.00       0.00       1.01       9.01       0.00       9.01        0.03     5.34   0.799
  sub8                      11.28       0.00       0.00       1.01       9.00       0.00       9.00        0.06    10.08   0.798
  sub9                      11.28       0.00       0.00       1.01       8.99       0.00       8.99        0.04     7.58   0.798
  sub10                     11.28       0.00       0.00       0.90       9.08       0.00       9.08        0.10    17.43   0.805
  sub11                     11.28       0.00       0.00       0.90       9.10       0.00       9.10        0.11    18.56   0.807
  sub12                     11.28       0.00       0.00       1.47       8.62       0.00       8.62        0.08    13.79   0.765
  sub14                     11.28       0.00       0.00       1.01       8.99       0.00       8.99        0.09    14.98   0.797
  sub15                     11.28       0.00       0.00       3.38       6.91       0.00       6.91        0.12    20.76   0.613
  sub16                     11.28       0.00       0.00       3.72       6.64       0.00       6.64        0.07    12.34   0.589
  sub17                     11.28       0.00       0.00       3.61       6.73       0.00       6.73        0.06    10.18   0.597
  sub22                     11.28       0.00       0.00       4.85       5.64       0.00       5.64        0.36    62.58   0.500
  sub23                     11.28       0.00       0.00       4.17       6.23       0.00       6.23        0.30    52.29   0.553
  sub60                     11.28       0.00       0.00       1.35       7.08       0.00       7.08        2.14   214.31   0.627
  sub61                     11.28       0.00       0.00       1.92       7.22       0.00       7.22        2.23   246.69   0.640
  sub62                     11.28       0.00       0.00       0.90       7.84       0.00       7.84        2.41   259.66   0.695
  sub63                     11.28       0.00       0.00       3.27       6.33       0.00       6.33        1.92   219.77   0.561
  sub64                     11.28       0.00       0.00       1.69       6.79       0.00       6.79        2.06   204.52   0.602
  sub65                     11.28       0.00       0.00       1.47       6.90       0.00       6.90        2.12   208.50   0.612
  sub66                     11.28       0.00       0.00       3.27       5.83       0.00       5.83        1.79   183.42   0.517
  sub67                     11.28       0.00       0.00       0.90       8.30       0.00       8.30        2.56   301.39   0.736
  sub68                     11.28       0.00       0.00       1.58       7.60       0.00       7.60        2.34   264.96   0.674
  sub69                     11.28       0.00       0.00       1.69       7.90       0.00       7.90        1.85   237.25   0.701
  sub70                     11.28       8.07       0.00       6.54      10.49       0.03      10.52        2.41   252.63   0.544
  sub71                     11.28       0.00       0.00       0.90       7.63       0.00       7.63        1.80   186.96   0.676
  sub72                     11.28       0.00       0.00       0.79       6.02       0.00       6.02        1.23   100.40   0.534
  sub73                     11.28      10.24       0.00       7.30      11.40       0.02      11.42        2.68   238.40   0.531
  sub74                     11.28       0.00       0.00       8.46       2.36       0.00       2.36        0.94   126.51   0.209
  
  
  ******************
  Node Depth Summary
  ******************
  
  ---------------------------------------------------------------------------------
                                 Average  Maximum  Maximum  Time of Max    Reported
                                   Depth    Depth      HGL   Occurrence   Max Depth
  Node                 Type       Meters   Meters   Meters  days hr:min      Meters
  ---------------------------------------------------------------------------------
  WS02001211           JUNCTION     0.60     0.65     5.49     0  02:29        0.65
  WS02001212           JUNCTION     0.34     0.39     5.46     0  02:29        0.39
  WS02001213           JUNCTION     0.56     0.66     5.43     0  02:28        0.66
  WS02003069           JUNCTION     0.39     0.53     5.11     0  02:28        0.53
  WS02003072           JUNCTION     0.46     0.59     4.96     0  02:28        0.59
  WS02003073           JUNCTION     0.27     0.36     4.43     0  02:29        0.36
  WS02003060           JUNCTION     0.35     0.47     5.40     0  02:27        0.47
  WS02003066           JUNCTION     0.21     0.31     5.87     0  02:13        0.31
  WS02003059           JUNCTION     0.63     0.73     5.42     0  02:28        0.73
  WS02003067           JUNCTION     0.53     0.72     6.04     0  02:12        0.72
  WS02004401           JUNCTION     0.63     0.91     6.91     0  02:10        0.91
  WS02004402           JUNCTION     0.66     0.93     6.89     0  02:10        0.93
  WS02004403           JUNCTION     0.69     0.94     6.87     0  02:10        0.94
  WS02004404           JUNCTION     0.76     1.01     6.86     0  02:12        1.01
  WS02004406           JUNCTION     0.77     0.99     6.82     0  02:11        0.99
  WS02004409           JUNCTION     0.45     0.71     6.48     0  02:11        0.71
  WS02004410           JUNCTION     0.47     0.72     6.44     0  02:12        0.72
  WS02004411           JUNCTION     0.48     0.73     6.41     0  02:12        0.73
  WS02004412           JUNCTION     0.50     0.73     6.37     0  02:12        0.73
  WS02004413           JUNCTION     0.65     0.89     6.36     0  02:12        0.89
  WS02004405           JUNCTION     0.76     1.00     6.85     0  02:10        1.00
  WS02006109           JUNCTION     0.71     1.04     7.65     0  02:07        1.02
  WS02006110           JUNCTION     0.70     0.96     7.55     0  02:09        0.96
  WS02006111           JUNCTION     0.20     0.30     7.01     0  02:10        0.30
  WS02006112           JUNCTION     0.80     1.19     7.07     0  02:09        1.12
  WS02006113           JUNCTION     0.31     0.48     7.37     0  02:08        0.48
  WS02006115           JUNCTION     0.52     0.81     6.95     0  02:10        0.81
  WS02006116           JUNCTION     0.60     0.89     6.93     0  02:10        0.89
  WS02006230           JUNCTION     0.66     1.08     7.83     0  02:10        1.08
  WS02006231           JUNCTION     0.43     0.75     7.87     0  02:10        0.75
  WS02006232           JUNCTION     0.55     0.87     7.91     0  02:10        0.87
  WS02006234           JUNCTION     0.46     0.80     7.95     0  02:09        0.80
  WS02006235           JUNCTION     0.48     0.82     7.99     0  02:10        0.82
  WS02006238           JUNCTION     0.51     0.85     7.99     0  02:10        0.85
  WS02006240           JUNCTION     0.37     0.74     8.04     0  02:10        0.74
  WS02006242           JUNCTION     0.40     0.79     8.06     0  02:10        0.79
  WS02006243           JUNCTION     0.27     0.67     8.09     0  02:09        0.67
  WS02006245           JUNCTION     0.22     0.62     8.11     0  02:09        0.62
  WS02006247           JUNCTION     0.22     0.62     8.12     0  02:10        0.62
  WS02006248           JUNCTION     0.18     0.55     8.14     0  02:10        0.55
  WS02006249           JUNCTION     0.21     0.56     8.15     0  02:10        0.56
  WS02006239           JUNCTION     0.45     0.80     8.01     0  02:10        0.80
  WS02006251           JUNCTION     0.18     0.53     8.20     0  02:09        0.53
  WS02006252           JUNCTION     0.14     0.35     8.59     0  01:42        0.35
  WS02006253           JUNCTION     0.22     0.55     8.20     0  02:10        0.55
  WS02006256           JUNCTION     1.08     2.35     9.28     0  00:00        1.21
  WS02004138           JUNCTION     0.13     0.14     7.39     0  00:00        0.14
  WS02004407           JUNCTION     0.20     0.31     6.63     0  02:11        0.31
  WS02006228           JUNCTION     0.71     1.09     7.74     0  02:07        1.08
  WS02006229           JUNCTION     0.68     1.08     7.78     0  02:09        1.08
  WS02006280           JUNCTION     0.08     0.16     8.44     0  02:09        0.16
  WS02006284           JUNCTION     0.39     0.51     8.91     0  02:09        0.51
  WS02006287           JUNCTION     0.12     0.24     9.20     0  02:09        0.24
  WSF200               JUNCTION     0.20     0.32     5.55     0  02:24        0.32
  HS02004901           JUNCTION     0.14     0.25    10.07     0  02:07        0.25
  HS02004881           JUNCTION     0.01     0.03     9.06     0  02:08        0.03
  HS02004876           JUNCTION     0.06     0.11     9.14     0  02:05        0.11
  HS02004870           JUNCTION     0.02     0.05     9.34     0  02:09        0.05
  HS02004862           JUNCTION     0.03     0.06     9.44     0  02:09        0.06
  HS02004856           JUNCTION     0.08     0.11     9.54     0  02:09        0.11
  HS02004852           JUNCTION     0.01     0.04     9.55     0  02:09        0.04
  HS02004848           JUNCTION     0.01     0.04     9.64     0  02:09        0.04
  HS02004842           JUNCTION     0.34     0.37     9.64     0  02:09        0.37
  HS02004837           JUNCTION     0.03     0.06     9.64     0  02:09        0.06
  HS02004830           JUNCTION     0.05     0.07     9.54     0  02:09        0.07
  HS02004824           JUNCTION     0.03     0.05     9.45     0  02:10        0.05
  HS02004817           JUNCTION     0.45     0.56     9.40     0  02:09        0.56
  HS02004807           JUNCTION     0.14     0.23     9.40     0  02:09        0.23
  HS02004802           JUNCTION     0.18     0.26     9.39     0  02:09        0.26
  HS02004799           JUNCTION     0.15     0.28     9.49     0  02:07        0.28
  HS02004792           JUNCTION     0.05     0.11     9.63     0  02:07        0.11
  HS02004788           JUNCTION     0.03     0.08     9.98     0  02:08        0.08
  HS02004785           JUNCTION     0.06     0.15    10.05     0  02:08        0.15
  HS02004777           JUNCTION     0.17     0.27    10.06     0  02:07        0.27
  HS02004770           JUNCTION     0.14     0.24    10.07     0  02:07        0.24
  HS02004480           JUNCTION     0.10     0.22     9.46     0  02:07        0.22
  HS02004479           JUNCTION     0.14     0.26     9.46     0  02:08        0.26
  HS02004478           JUNCTION     0.07     0.15     9.38     0  02:08        0.15
  YS02001745           JUNCTION     0.66     0.89     8.40     0  03:10        0.88
  YS02001748           JUNCTION     1.04     2.27     9.35     0  02:25        1.32
  YS02001751           JUNCTION     1.22     2.15     9.02     0  02:27        1.52
  YS02001754           JUNCTION     1.48     2.20     8.81     0  02:26        1.80
  YS02001762           JUNCTION     1.68     2.08     8.48     0  02:27        2.02
  YS02001765           JUNCTION     1.63     2.01     8.46     0  02:27        1.97
  YS02001767           JUNCTION     1.59     1.95     8.44     0  02:27        1.92
  YS02001770           JUNCTION     1.59     1.95     8.44     0  02:26        1.90
  YS02001774           JUNCTION     1.66     2.01     8.44     0  02:26        1.97
  YS02001779           JUNCTION     1.41     1.68     8.37     0  02:25        1.68
  YS02001882           JUNCTION     0.50     1.08     7.79     0  03:00        1.07
  YS02001884           JUNCTION     0.59     1.17     7.79     0  03:00        1.17
  YS02001759           JUNCTION     1.71     2.09     8.46     0  02:27        2.06
  YS02001887           JUNCTION     0.67     1.25     7.79     0  03:00        1.24
  YS02001890           JUNCTION     0.70     1.27     7.78     0  03:00        1.27
  YS02001898           JUNCTION     0.47     1.04     7.77     0  03:00        1.04
  YS02001901           JUNCTION     0.59     1.16     7.77     0  03:00        1.16
  YS02001904           JUNCTION     0.56     1.13     7.76     0  03:00        1.13
  YS02001907           JUNCTION     0.89     1.48     7.77     0  03:02        1.47
  YS02001910           JUNCTION     0.68     1.27     7.78     0  03:00        1.26
  YS02001915           JUNCTION     0.48     1.06     7.77     0  03:01        1.05
  YS02001918           JUNCTION     0.21     0.71     7.77     0  03:01        0.71
  YS02001619           JUNCTION     1.19     1.61     8.54     0  02:22        1.46
  YS02001629           JUNCTION     1.55     1.85     8.40     0  02:22        1.84
  YS02001641           JUNCTION     1.64     2.00     8.44     0  02:26        1.93
  YS02001644           JUNCTION     1.65     1.92     8.35     0  02:25        1.92
  YS02001652           JUNCTION     1.49     2.16     8.76     0  02:43        1.93
  YS02001655           JUNCTION     1.25     2.20     9.05     0  02:13        1.77
  YS02001920           JUNCTION     0.30     0.77     7.78     0  03:01        0.77
  YS02001923           JUNCTION     0.14     0.52     7.78     0  03:02        0.51
  YS02001926           JUNCTION     0.21     0.34     7.79     0  03:02        0.34
  YS02001929           JUNCTION     0.11     0.15     7.84     0  03:01        0.15
  YS02001658           JUNCTION     0.99     2.30     9.44     0  02:22        1.59
  YS02001661           JUNCTION     0.77     2.46     9.86     0  02:43        1.43
  YS02001664           JUNCTION     0.34     0.57     8.49     0  02:42        0.56
  YS02001622           JUNCTION     1.21     1.62     8.52     0  02:22        1.49
  YS02001633           JUNCTION     1.64     2.01     8.47     0  02:26        1.93
  YS02001649           JUNCTION     1.69     2.05     8.44     0  02:29        2.05
  YS02001757           JUNCTION     1.81     2.21     8.47     0  02:26        2.16
  YS02001895           JUNCTION     0.46     1.03     7.78     0  03:02        1.02
  YS02001625           JUNCTION     1.50     1.78     8.38     0  02:21        1.78
  YS02163301           JUNCTION     1.58     1.94     8.46     0  02:26        1.87
  YS02163601           JUNCTION     1.69     2.08     8.48     0  02:26        1.98
  YS02164001           JUNCTION     1.63     2.03     8.48     0  02:26        1.91
  YS02001647           JUNCTION     1.48     1.80     8.41     0  02:51        1.79
  YSB1154              JUNCTION     0.28     0.41     9.47     0  02:08        0.41
  YSB6556              JUNCTION     0.17     0.30     9.47     0  02:07        0.30
  YSB1174              JUNCTION     0.23     0.36     9.47     0  02:08        0.36
  YSB1171              JUNCTION     0.43     0.56     9.47     0  02:08        0.56
  YS02006553           JUNCTION     0.89     1.48     7.76     0  03:02        1.46
  YS02006561           JUNCTION     0.27     0.72     7.38     0  03:00        0.72
  YS02006556           JUNCTION     0.86     1.43     7.74     0  03:02        1.43
  YS02006558           JUNCTION     0.90     1.47     7.73     0  03:01        1.46
  YS02001783           JUNCTION     0.53     1.23     7.37     0  02:47        1.17
  YS02001784           JUNCTION     0.55     1.26     7.32     0  02:47        1.15
  YS02001786           JUNCTION     0.50     1.33     7.36     0  02:47        1.06
  YS02001788           JUNCTION     0.45     1.48     7.45     0  02:47        0.98
  YS02001790           JUNCTION     0.60     1.51     7.15     0  02:47        1.19
  YS02001791           JUNCTION     0.59     1.34     6.81     0  02:47        1.23
  YS02001793           JUNCTION     0.83     1.80     6.63     0  03:00        1.79
  WS02004139           JUNCTION     0.54     0.59     5.50     0  02:29        0.59
  WSC                  OUTFALL      0.27     0.36     1.03     0  02:29        0.36
  3                    OUTFALL      0.12     0.23     6.23     0  00:00        0.21
  4                    OUTFALL      0.01     0.06     7.06     0  02:10        0.06
  5                    OUTFALL      0.00     0.00     5.00     0  00:00        0.00
  JK-storage           STORAGE      3.19     5.80     6.60     0  02:47        5.80
  CC-storage           STORAGE      1.02     1.40     8.40     0  03:09        1.40
  XR-storage           STORAGE      7.49     7.72     5.72     0  01:56        7.72
  
  
  *******************
  Node Inflow Summary
  *******************
  
  -------------------------------------------------------------------------------------------------
                                  Maximum  Maximum                  Lateral       Total        Flow
                                  Lateral    Total  Time of Max      Inflow      Inflow     Balance
                                   Inflow   Inflow   Occurrence      Volume      Volume       Error
  Node                 Type           LPS      LPS  days hr:min    10^6 ltr    10^6 ltr     Percent
  -------------------------------------------------------------------------------------------------
  WS02001211           JUNCTION      7.35   199.19     0  03:13       0.207        5.31       0.573
  WS02001212           JUNCTION      0.00   201.03     0  03:12           0        5.28       0.299
  WS02001213           JUNCTION      0.00   202.57     0  03:13           0        5.27       0.345
  WS02003069           JUNCTION      0.32   796.46     0  02:27     0.00902        11.4       0.169
  WS02003072           JUNCTION      0.00   796.39     0  02:28           0        11.4       0.225
  WS02003073           JUNCTION      1.82   798.21     0  02:28      0.0514        11.4       0.237
  WS02003060           JUNCTION     16.53   796.27     0  02:27       0.466        11.4       0.162
  WS02003066           JUNCTION      0.00   601.71     0  02:13           0        5.74       0.048
  WS02003059           JUNCTION      0.00   205.69     0  03:13           0        5.25       0.595
  WS02003067           JUNCTION      0.00   601.66     0  02:12           0        5.74       0.110
  WS02004401           JUNCTION      0.00   604.17     0  02:10           0         5.9       0.252
  WS02004402           JUNCTION      0.00   604.04     0  02:10           0        5.89       0.247
  WS02004403           JUNCTION      0.00   603.63     0  02:10           0        5.87       0.232
  WS02004404           JUNCTION      0.16   603.31     0  02:10     0.00457        5.86       0.183
  WS02004406           JUNCTION      0.00   603.87     0  02:10           0        5.84       0.449
  WS02004409           JUNCTION      0.00   602.78     0  02:11           0        5.81       0.143
  WS02004410           JUNCTION      0.00   602.41     0  02:11           0         5.8       0.177
  WS02004411           JUNCTION      0.00   602.12     0  02:12           0        5.79       0.193
  WS02004412           JUNCTION      0.00   601.95     0  02:12           0        5.78       0.225
  WS02004413           JUNCTION      0.00   601.78     0  02:12           0        5.76       0.363
  WS02004405           JUNCTION      0.04   603.49     0  02:11     0.00107        5.85       0.279
  WS02006109           JUNCTION      1.23   592.22     0  02:09      0.0347        5.93       0.289
  WS02006110           JUNCTION      0.00   592.14     0  02:09           0        5.91       0.229
  WS02006111           JUNCTION      0.00   618.64     0  02:08           0        5.89       0.039
  WS02006112           JUNCTION     10.18   609.04     0  02:10      0.0577        5.95       0.352
  WS02006113           JUNCTION      0.00   594.57     0  02:09           0         5.9       0.083
  WS02006115           JUNCTION      0.00   619.96     0  02:09           0        5.93       0.204
  WS02006116           JUNCTION      0.00   605.33     0  02:09           0        5.91       0.209
  WS02006230           JUNCTION     10.28   339.58     0  02:50        0.29        4.17       0.252
  WS02006231           JUNCTION      0.00   329.00     0  02:50           0        3.88       0.079
  WS02006232           JUNCTION      0.00   329.00     0  02:50           0         3.9       0.279
  WS02006234           JUNCTION      0.00   328.95     0  02:50           0         3.9       0.053
  WS02006235           JUNCTION      0.00   328.93     0  02:50           0        3.93       0.190
  WS02006238           JUNCTION      0.00   238.70     0  02:51           0        1.18       0.308
  WS02006240           JUNCTION      0.00   237.88     0  02:51           0        1.17       0.286
  WS02006242           JUNCTION      0.00   237.72     0  02:51           0        1.16       0.327
  WS02006243           JUNCTION      0.00   238.13     0  01:47           0        1.15      -0.202
  WS02006245           JUNCTION      0.00   242.89     0  01:47           0        1.15       0.173
  WS02006247           JUNCTION      0.00   246.43     0  01:48           0        1.16       0.011
  WS02006248           JUNCTION      0.00   248.72     0  01:48           0        1.15      -0.039
  WS02006249           JUNCTION      0.00   257.91     0  02:09           0        1.23       0.080
  WS02006239           JUNCTION      0.00   238.60     0  02:51           0        1.17       0.353
  WS02006251           JUNCTION      0.08   257.95     0  02:08     0.00217        1.23      -0.008
  WS02006252           JUNCTION      0.00   200.00     0  02:10           0       0.893       0.021
  WS02006253           JUNCTION      1.44    57.92     0  02:08     0.00747       0.333       0.035
  WS02006256           JUNCTION      0.00   600.00     0  00:00           0        6.99       0.027
  WS02004138           JUNCTION      0.00   190.00     0  00:20           0        5.13       0.075
  WS02004407           JUNCTION      0.00   603.14     0  02:11           0        5.81       0.067
  WS02006228           JUNCTION      0.00   590.99     0  02:09           0         5.9       0.183
  WS02006229           JUNCTION      0.00   590.01     0  02:10           0        5.91       0.149
  WS02006280           JUNCTION      0.00   274.19     0  02:09           0        1.75       0.004
  WS02006284           JUNCTION      0.10   274.19     0  02:09      0.0027        1.75       0.059
  WS02006287           JUNCTION      0.00   274.08     0  02:09           0        1.75       0.041
  WSF200               JUNCTION      0.00   601.73     0  02:13           0        5.73       0.038
  HS02004901           JUNCTION     12.34    12.34     0  01:36      0.0695      0.0697       2.591
  HS02004881           JUNCTION      5.34    56.62     0  02:08      0.0303       0.326       0.034
  HS02004876           JUNCTION     10.11    51.23     0  02:08      0.0584       0.296       0.182
  HS02004870           JUNCTION     10.08    41.18     0  02:08      0.0575       0.238       0.045
  HS02004862           JUNCTION      9.99    31.21     0  02:08      0.0634        0.18       0.095
  HS02004856           JUNCTION      7.58    21.25     0  02:08      0.0432       0.118       1.232
  HS02004852           JUNCTION      0.00    13.78     0  02:09           0      0.0753       0.072
  HS02004848           JUNCTION     22.44    22.44     0  02:09       0.139       0.139       0.033
  HS02004842           JUNCTION      0.00     8.71     0  02:17           0      0.0763      20.532
  HS02004837           JUNCTION     23.78    32.32     0  02:08       0.279       0.343       0.238
  HS02004830           JUNCTION      0.15    32.46     0  02:09     0.00423       0.333       0.372
  HS02004824           JUNCTION     27.40    59.85     0  02:10       0.181       0.513       0.105
  HS02004817           JUNCTION      0.60    60.44     0  02:10      0.0169       0.529       3.252
  HS02004807           JUNCTION     18.56    78.63     0  02:09       0.106       0.618       0.705
  HS02004802           JUNCTION      0.00    78.69     0  02:10           0       0.615       0.648
  HS02004799           JUNCTION     14.98   164.66     0  02:07      0.0856       0.976       0.270
  HS02004792           JUNCTION     62.86   149.73     0  02:07       0.364       0.891       0.045
  HS02004788           JUNCTION     22.43    86.95     0  02:07       0.166       0.528       0.073
  HS02004785           JUNCTION      0.15    64.59     0  02:07     0.00423       0.363       0.135
  HS02004777           JUNCTION      0.03    64.48     0  02:07    0.000846       0.364       1.448
  HS02004770           JUNCTION     52.29    64.50     0  02:06       0.297       0.365       0.854
  HS02004480           JUNCTION      0.00   195.78     0  02:07           0        1.15       0.099
  HS02004479           JUNCTION      0.00    31.20     0  02:09           0       0.188       0.391
  HS02004478           JUNCTION      0.00   274.07     0  02:08           0        1.75       0.020
  YS02001745           JUNCTION    214.32   435.01     0  02:25        2.14        2.16       0.531
  YS02001748           JUNCTION      0.04   606.68     0  02:26     0.00127        2.15       1.036
  YS02001751           JUNCTION      0.01   332.04     0  02:14     0.00031        2.11       1.125
  YS02001754           JUNCTION      0.26   250.42     0  02:25     0.00733         2.1       1.176
  YS02001762           JUNCTION      0.00   257.72     0  02:44           0         1.7       1.240
  YS02001765           JUNCTION      0.00   257.44     0  02:44           0         1.7       1.431
  YS02001767           JUNCTION      0.54   257.17     0  02:44      0.0151        1.72       2.120
  YS02001770           JUNCTION    259.81   368.51     0  03:14        2.41        2.66       1.184
  YS02001774           JUNCTION      0.00   369.40     0  03:14           0        1.18       2.150
  YS02001779           JUNCTION      0.01   369.76     0  03:14    0.000141        1.15       1.334
  YS02001882           JUNCTION      0.00    13.33     0  03:32           0      0.0174      13.309
  YS02001884           JUNCTION      0.00    25.17     0  02:48           0      0.0535      12.068
  YS02001759           JUNCTION    246.73   501.86     0  02:44        2.23        3.65       0.624
  YS02001887           JUNCTION    301.84   304.27     0  02:49        2.57         2.6       0.313
  YS02001890           JUNCTION      0.00   301.96     0  02:50           0        2.56       0.347
  YS02001898           JUNCTION      0.00   302.73     0  02:58           0        2.54       0.112
  YS02001901           JUNCTION      0.00   298.96     0  02:46           0        2.54       0.257
  YS02001904           JUNCTION      0.00   300.12     0  02:47           0        2.54       0.236
  YS02001907           JUNCTION      0.00   572.94     0  02:46           0        5.63       0.419
  YS02001910           JUNCTION      0.00   310.47     0  03:07           0         3.1       0.368
  YS02001915           JUNCTION    186.98   310.37     0  03:08         1.8         3.1       0.183
  YS02001918           JUNCTION      0.00   140.41     0  03:08           0         1.3       0.135
  YS02001619           JUNCTION    183.42   183.42     0  02:55        1.79        1.79       0.688
  YS02001629           JUNCTION      0.00   179.86     0  02:08           0        1.66       1.725
  YS02001641           JUNCTION      0.00   374.41     0  02:39           0        3.69       0.568
  YS02001644           JUNCTION    204.56  1046.67     0  03:10        2.06        9.65       0.268
  YS02001652           JUNCTION      0.00   304.03     0  02:22           0        1.87       1.241
  YS02001655           JUNCTION      0.15   393.93     0  02:13     0.00434        1.89       1.330
  YS02001920           JUNCTION      2.87   131.63     0  03:05      0.0809        1.31       0.214
  YS02001923           JUNCTION      0.04   105.38     0  03:04     0.00106        1.22       0.040
  YS02001926           JUNCTION      0.05   100.44     0  03:01     0.00147        1.23       0.268
  YS02001929           JUNCTION    100.40   100.40     0  03:01        1.23        1.23       0.039
  YS02001658           JUNCTION      0.00   603.47     0  02:22           0        1.92       1.199
  YS02001661           JUNCTION      0.00   619.79     0  02:42           0         2.5      -0.117
  YS02001664           JUNCTION    219.77   374.83     0  02:42        1.91         2.5       0.277
  YS02001622           JUNCTION      0.00   183.67     0  02:54           0        1.78       1.819
  YS02001633           JUNCTION    208.70   373.63     0  02:39        2.13        3.75       0.856
  YS02001649           JUNCTION      0.00   788.10     0  02:38           0        6.24       0.592
  YS02001757           JUNCTION      0.00  1460.54     0  02:38           0        7.83       1.189
  YS02001895           JUNCTION      0.00   302.04     0  02:49           0        2.55       0.189
  YS02001625           JUNCTION      0.00   183.51     0  02:54           0        1.74       2.277
  YS02163301           JUNCTION      0.00   192.83     0  02:23           0        1.65       1.463
  YS02163601           JUNCTION      0.11   373.84     0  02:39      0.0031        3.71       0.814
  YS02164001           JUNCTION      0.00   373.88     0  02:39           0        3.69       0.537
  YS02001647           JUNCTION      0.00   568.32     0  02:39           0        5.47       0.519
  YSB1154              JUNCTION     18.00    18.00     0  02:07       0.104       0.105       1.400
  YSB6556              JUNCTION      0.00    17.99     0  02:06           0       0.105       1.199
  YSB1174              JUNCTION     13.79    13.79     0  01:35      0.0753      0.0758       1.722
  YSB1171              JUNCTION      0.00    31.24     0  02:07           0       0.187       3.509
  YS02006553           JUNCTION      0.00   572.69     0  02:46           0        5.62       0.268
  YS02006561           JUNCTION      0.00   837.03     0  02:46           0        7.92       0.008
  YS02006556           JUNCTION      0.00   572.47     0  02:46           0        5.62       0.196
  YS02006558           JUNCTION    265.84   836.52     0  02:46        2.36        7.95       0.065
  YS02001783           JUNCTION      0.00   842.12     0  02:46           0        7.92       0.027
  YS02001784           JUNCTION      1.06   843.13     0  02:46      0.0299        7.95       0.044
  YS02001786           JUNCTION      0.06   833.45     0  02:46     0.00159        7.95       0.040
  YS02001788           JUNCTION      0.07   831.19     0  02:45       0.002        7.94       0.023
  YS02001790           JUNCTION      0.15   829.97     0  02:43     0.00437        7.95       0.031
  YS02001791           JUNCTION      0.00   864.38     0  02:42           0        7.94       0.011
  YS02001793           JUNCTION      0.00   851.77     0  02:42           0        7.94       0.003
  WS02004139           JUNCTION      0.32   191.05     0  00:00     0.00905        5.14       0.615
  WSC                  OUTFALL       0.00   798.24     0  02:29           0        11.4       0.000
  3                    OUTFALL       0.00   597.65     0  00:00           0        4.22       0.000
  4                    OUTFALL       0.00    31.91     0  02:10           0      0.0707       0.000
  5                    OUTFALL       0.00     0.00     0  00:00           0           0       0.000 ltr
  JK-storage           STORAGE       0.00   815.37     0  03:02           0        8.09      -4.401
  CC-storage           STORAGE       0.00  1461.07     0  02:38           0        4.86       1.352
  XR-storage           STORAGE     549.18   549.18     0  02:55        9.26        9.86      -0.001
  
  
  **********************
  Node Surcharge Summary
  **********************
  
  Surcharging occurs when water rises above the top of the highest conduit.
  ---------------------------------------------------------------------
                                               Max. Height   Min. Depth
                                   Hours       Above Crown    Below Rim
  Node                 Type      Surcharged         Meters       Meters
  ---------------------------------------------------------------------
  WS02004404           JUNCTION        0.33          0.010        2.770
  WS02006109           JUNCTION        1.37          0.215        1.605
  WS02006110           JUNCTION        1.11          0.055        1.795
  WS02006112           JUNCTION        1.20          0.190        1.490
  WS02006230           JUNCTION        0.12          0.003        1.567
  WS02006231           JUNCTION        0.67          0.038        1.492
  WS02006232           JUNCTION        1.21          0.171        1.309
  WS02006234           JUNCTION        1.04          0.077        1.163
  WS02006235           JUNCTION        1.11          0.111        1.179
  WS02006238           JUNCTION        1.13          0.126        1.304
  WS02006240           JUNCTION        0.73          0.033        1.357
  WS02006242           JUNCTION        1.00          0.064        0.756
  WS02006239           JUNCTION        1.01          0.065        1.225
  WS02006256           JUNCTION        0.01          1.050        0.000
  WS02006228           JUNCTION        1.36          0.258        1.942
  YS02001748           JUNCTION        5.26          1.190        0.000
  YS02001751           JUNCTION        5.51          1.146        0.054
  YS02001754           JUNCTION        5.73          1.150        0.000
  YS02001762           JUNCTION        5.95          1.077        0.073
  YS02001765           JUNCTION        5.93          1.007        0.093
  YS02001767           JUNCTION        5.92          0.954        0.076
  YS02001770           JUNCTION        5.89          0.920        0.000
  YS02001774           JUNCTION        5.95          1.013        0.037
  YS02001779           JUNCTION        5.70          0.680        0.000
  YS02001882           JUNCTION        0.19          0.078        0.752
  YS02001884           JUNCTION        0.26          0.114        0.756
  YS02001759           JUNCTION        5.98          1.094        0.116
  YS02001887           JUNCTION        0.39          0.200        0.750
  YS02001890           JUNCTION        0.44          0.224        0.536
  YS02001898           JUNCTION        0.03          0.008        0.732
  YS02001901           JUNCTION        0.34          0.160        0.710
  YS02001904           JUNCTION        0.30          0.134        0.716
  YS02001907           JUNCTION        1.44          0.468        0.482
  YS02001910           JUNCTION        0.53          0.268        0.832
  YS02001915           JUNCTION        0.16          0.056        0.944
  YS02001619           JUNCTION        5.52          0.610        0.000
  YS02001629           JUNCTION        5.53          0.470        0.000
  YS02001641           JUNCTION        5.94          1.002        0.098
  YS02001644           JUNCTION        5.95          0.920        0.000
  YS02001652           JUNCTION        5.74          1.130        0.000
  YS02001655           JUNCTION        5.56          1.200        0.000
  YS02001658           JUNCTION        5.30          1.300        0.000
  YS02001661           JUNCTION        0.22          1.390        0.000
  YS02001622           JUNCTION        5.58          0.620        0.000
  YS02001633           JUNCTION        5.93          0.994        0.066
  YS02001649           JUNCTION        5.96          1.050        0.000
  YS02001757           JUNCTION        6.04          1.210        0.000
  YS02001895           JUNCTION        0.11          0.028        0.722
  YS02001625           JUNCTION        5.77          0.780        0.000
  YS02163301           JUNCTION        5.91          0.938        0.092
  YS02163601           JUNCTION        5.96          1.080        0.000
  YS02164001           JUNCTION        5.94          1.025        0.075
  YS02001647           JUNCTION        5.75          0.801        0.099
  YS02006553           JUNCTION        1.51          0.475        0.715
  YS02006556           JUNCTION        1.01          0.388        0.962
  YS02006558           JUNCTION        0.95          0.367        1.033
  YS02001783           JUNCTION        0.71          0.426        1.174
  YS02001784           JUNCTION        0.74          0.456        1.034
  YS02001786           JUNCTION        0.71          0.534        0.896
  YS02001788           JUNCTION        0.70          0.676        0.804
  YS02001790           JUNCTION        2.08          0.708        0.449
  YS02001791           JUNCTION        2.21          0.537        1.383
  YS02001793           JUNCTION        2.42          0.797        1.803
  
  
  *********************
  Node Flooding Summary
  *********************
  
  Flooding refers to all water that overflows a node, whether it ponds or not.
  --------------------------------------------------------------------------
                                                             Total   Maximum
                                 Maximum   Time of Max       Flood    Ponded
                        Hours       Rate    Occurrence      Volume     Depth
  Node                 Flooded       LPS   days hr:min    10^6 ltr    Meters
  --------------------------------------------------------------------------
  WS02006256              0.01    406.11      0  00:00       0.001     0.000
  YS02001748              0.01    234.31      0  02:26       0.000     0.000
  YS02001754              0.01     11.40      0  02:26       0.000     0.000
  YS02001770              0.01      4.77      0  02:26       0.000     0.000
  YS02001779              3.05    369.70      0  03:14       1.124     0.000
  YS02001619              0.01     22.84      0  02:22       0.000     0.000
  YS02001629              0.01     32.01      0  02:22       0.000     0.000
  YS02001644              5.18   1046.51      0  03:10       8.059     0.000
  YS02001652              0.01     21.43      0  02:51       0.000     0.000
  YS02001655              0.01    175.18      0  02:13       0.000     0.000
  YS02001658              0.01    183.64      0  02:22       0.000     0.000
  YS02001661              0.01    172.92      0  02:51       0.001     0.000
  YS02001622              0.01     23.29      0  02:23       0.000     0.000
  YS02001649              0.07     50.40      0  02:51       0.003     0.000
  YS02001757              0.01     16.36      0  02:27       0.000     0.000
  YS02001625              0.55     36.26      0  02:55       0.045     0.000
  YS02163601              0.01      2.35      0  02:26       0.000     0.000
  JK-storage              1.75    515.33      0  03:02       1.478     0.000
  XR-storage              5.89    456.05      0  02:10       3.807     0.000
  
  
  **********************
  Storage Volume Summary
  **********************
  
  --------------------------------------------------------------------------------------------------
                         Average     Avg  Evap Exfil       Maximum     Max    Time of Max    Maximum
                          Volume    Pcnt  Pcnt  Pcnt        Volume    Pcnt     Occurrence    Outflow
  Storage Unit           1000 m3    Full  Loss  Loss       1000 m3    Full    days hr:min        LPS
  --------------------------------------------------------------------------------------------------
  JK-storage               0.160      55     0     0         0.291     100       0  02:47     600.00
  CC-storage               2.830      18     0     0         3.899      25       0  03:09     200.00
  XR-storage               0.899      97     0     0         0.926     100       0  01:56     190.00
  
  
  ***********************
  Outfall Loading Summary
  ***********************
  
  -----------------------------------------------------------
                         Flow       Avg       Max       Total
                         Freq      Flow      Flow      Volume
  Outfall Node           Pcnt       LPS       LPS    10^6 ltr
  -----------------------------------------------------------
  WSC                   99.99    478.07    798.24      11.385
  3                     89.42    270.60    597.65       4.222
  4                     23.37     19.75     31.91       0.071
  5                      0.00      0.00      0.00       0.000
  -----------------------------------------------------------
  System                53.19    768.41   1333.46      15.678
  
  
  ********************
  Link Flow Summary
  ********************
  
  -----------------------------------------------------------------------------
                                 Maximum  Time of Max   Maximum    Max/    Max/
                                  |Flow|   Occurrence   |Veloc|    Full    Full
  Link                 Type          LPS  days hr:min     m/sec    Flow   Depth
  -----------------------------------------------------------------------------
  WS02003066WSF200     CONDUIT    601.73     0  02:13      2.92    0.10    0.24
  WS02006287WS02006284 CONDUIT    274.09     0  02:09      1.78    0.13    0.25
  WS02006284WS02006280 CONDUIT    274.19     0  02:09      2.02    0.11    0.23
  WS02006280WS02006229 CONDUIT    274.19     0  02:09      3.26    0.06    0.16
  WS02006229WS02006228 CONDUIT    590.99     0  02:09      1.18    1.96    1.00
  WS02006256WS02006235 CONDUIT    177.52     0  00:01      2.73    1.88    1.00
  WS02006253WS02006251 CONDUIT     57.87     0  02:08      0.52    0.17    0.76
  WS02006252WS02006251 CONDUIT    200.85     0  01:42      1.97    0.74    0.76
  WS02006251WS02006249 CONDUIT    257.91     0  02:09      0.99    0.74    0.77
  WS02006249WS02006248 CONDUIT    248.72     0  01:48      1.07    1.36    0.78
  WS02006248WS02006247 CONDUIT    246.43     0  01:48      1.04    0.54    0.83
  WS02006247WS02006245 CONDUIT    242.89     0  01:47      0.99    1.93    0.88
  WS02006245WS02006243 CONDUIT    238.13     0  01:47      1.04    0.70    0.91
  WS02006243WS02006242 CONDUIT    237.72     0  02:51      0.83    0.51    0.98
  WS02006242WS02006240 CONDUIT    237.88     0  02:51      0.70    0.94    1.00
  WS02006240WS02006239 CONDUIT    238.60     0  02:51      0.66    0.75    1.00
  WS02006239WS02006238 CONDUIT    238.70     0  02:51      0.69    0.76    1.00
  WS02006238WS02006235 CONDUIT    238.71     0  02:51      1.32    0.53    1.00
  WS02006235WS02006234 CONDUIT    328.95     0  02:50      0.94    3.47    1.00
  WS02006234WS02006232 CONDUIT    329.00     0  02:50      1.17    0.67    1.00
  WS02006232WS02006231 CONDUIT    329.00     0  02:50      0.86    0.69    1.00
  WS02006231WS02006230 CONDUIT    329.30     0  02:50      1.03    5.00    1.00
  WS02006230WS02006229 CONDUIT    340.00     0  02:50      0.88    7.57    1.00
  WS02006228WS02006109 CONDUIT    590.99     0  02:09      1.18    2.58    1.00
  WS02006116WS02004401 CONDUIT    604.17     0  02:10      0.81    0.83    0.90
  WS02006115WS02006116 CONDUIT    605.33     0  02:09      0.88    0.78    0.82
  WS02006113WS02006111 CONDUIT    618.64     0  02:08      2.55    0.74    0.49
  WS02006112WS02006115 CONDUIT    619.96     0  02:09      0.83    0.37    0.90
  WS02006111WS02006112 CONDUIT    599.24     0  02:10      1.64    0.28    0.68
  WS02006110WS02006113 CONDUIT    594.57     0  02:09      1.38    0.54    0.80
  WS02006109WS02006110 CONDUIT    592.14     0  02:09      1.18    1.14    1.00
  WS02004411WS02004412 CONDUIT    601.95     0  02:12      0.98    0.86    0.73
  WS02004401WS02004402 CONDUIT    604.04     0  02:10      0.80    0.73    0.92
  WS02004413WS02003067 CONDUIT    601.66     0  02:12      1.18    0.26    0.62
  WS02004412WS02004413 CONDUIT    601.78     0  02:12      0.88    0.40    0.81
  WS02004410WS02004411 CONDUIT    602.12     0  02:12      0.99    0.82    0.73
  WS02004409WS02004410 CONDUIT    602.41     0  02:11      1.00    0.78    0.72
  WS02004407WS02004409 CONDUIT    602.78     0  02:11      1.49    0.21    0.51
  WS02004406WS02004407 CONDUIT    603.14     0  02:11      1.11    0.27    0.65
  WS02004405WS02004406 CONDUIT    603.87     0  02:10      0.77    1.19    0.99
  WS02004404WS02004405 CONDUIT    603.45     0  02:11      0.77    5.91    1.00
  WS02004403WS02004404 CONDUIT    603.14     0  02:10      0.77    0.44    0.97
  WS02004402WS02004403 CONDUIT    603.63     0  02:10      0.79    0.87    0.94
  WS02004139WS02001211 CONDUIT    191.84     0  03:13      0.69    0.24    0.47
  WS02004138WS02004139 CONDUIT    190.73     0  00:00      2.94    0.04    0.34
  WS02003067WS02003066 CONDUIT    601.71     0  02:13      1.29    0.19    0.43
  WS02001213WS02003059 CONDUIT    205.69     0  03:13      0.64    0.34    0.69
  WS02001212WS02001213 CONDUIT    202.57     0  03:13      1.03    0.31    0.37
  WS02001211WS02001212 CONDUIT    201.03     0  03:12      0.54    0.15    0.52
  WS02003072WS02003073 CONDUIT    796.39     0  02:28      1.63    1.72    0.45
  WS02003069WS02003072 CONDUIT    796.39     0  02:28      1.54    0.38    0.47
  WS02003060WS02003069 CONDUIT    796.14     0  02:27      1.79    0.31    0.42
  WS02003059WS02003060 CONDUIT    209.89     0  03:14      0.67    0.14    0.60
  HS02004901HS02004770 CONDUIT     12.22     0  02:07      0.05    0.05    0.35
  HS02004876HS02004881 CONDUIT     51.32     0  02:08      0.76    0.55    0.10
  HS02004870HS02004876 CONDUIT     41.17     0  02:09      0.52    0.03    0.11
  HS02004842HS02004848 CONDUIT      8.71     0  02:17      0.04    0.01    0.29
  HS02004837HS02004842 CONDUIT      8.85     0  02:14      0.41    0.01    0.30
  HS02004830HS02004837 CONDUIT     32.31     0  02:09      0.50    0.03    0.09
  HS02004824HS02004830 CONDUIT     32.45     0  02:09      0.53    0.04    0.09
  HS02004817HS02004824 CONDUIT     59.84     0  02:10      0.20    0.03    0.43
  HS02004770HS02004777 CONDUIT     64.45     0  02:07      0.26    0.12    0.36
  HS02004799HS02004480 CONDUIT    164.63     0  02:07      0.67    0.21    0.35
  HS02004792HS02004799 CONDUIT    149.69     0  02:07      0.76    0.09    0.28
  HS02004788HS02004792 CONDUIT     86.94     0  02:08      0.90    0.06    0.14
  HS02004785HS02004788 CONDUIT     64.57     0  02:08      0.57    0.49    0.16
  HS02004777HS02004785 CONDUIT     64.44     0  02:07      0.31    0.08    0.29
  HS02004480HS02004478 CONDUIT    195.75     0  02:08      1.06    0.82    0.26
  HS02004479HS02004480 CONDUIT     31.31     0  02:10      0.28    0.03    0.34
  HS02004862HS02004870 CONDUIT     31.19     0  02:09      0.56    0.03    0.08
  HS02004848HS02004852 CONDUIT     13.78     0  02:09      0.38    0.02    0.05
  HS02004856HS02004862 CONDUIT     21.24     0  02:09      0.41    0.02    0.07
  HS02004852HS02004856 CONDUIT     13.76     0  02:09      0.18    0.02    0.11
  HS02004802HS02004478 CONDUIT     78.88     0  02:11      0.38    0.07    0.29
  HS02004478WS02006287 CONDUIT    274.08     0  02:09      1.48    0.08    0.21
  HS02004817HS02004807 CONDUIT     60.62     0  02:11      0.15    0.04    0.56
  HS02004807HS02004802 CONDUIT     78.69     0  02:10      0.32    0.15    0.35
  YS02001759YS02001757 CONDUIT    502.03     0  02:44      0.64    0.36    1.00
  YS02001762YS02001759 CONDUIT    258.15     0  02:29      0.33    0.30    1.00
  YS02001765YS02001762 CONDUIT    257.72     0  02:44      0.33    0.24    1.00
  YS02001770YS02001767 CONDUIT    256.63     0  02:44      0.38    1.02    1.00
  YS02001774YS02001770 CONDUIT    369.40     0  03:14      0.47    0.24    1.00
  YS02001779YS02001774 CONDUIT    369.76     0  03:14      0.47    0.19    1.00
  YS02001649YS02001757 CONDUIT    788.05     0  02:38      1.00    0.48    1.00
  YS02001767YS02001765 CONDUIT    257.44     0  02:44      0.35    0.32    1.00
  YS02006561YS02001783 CONDUIT    842.12     0  02:46      2.14    0.44    0.95
  YS02001783YS02001784 CONDUIT    842.07     0  02:46      1.70    1.16    1.00
  YS02001784YS02001785 CONDUIT    833.40     0  02:46      1.84    1.94    1.00
  YS02001788YS02001790 CONDUIT    829.82     0  02:43      2.39    0.61    1.00
  YS02001790YS02001791 CONDUIT    864.38     0  02:42      2.96    0.94    1.00
  YS02001791YS02001793 CONDUIT    851.77     0  02:42      5.87    0.37    1.00
  YS02001910YS02001907 CONDUIT    310.67     0  03:07      0.49    0.18    1.00
  YS02001786YS02001788 CONDUIT    831.12     0  02:45      2.28    1.60    1.00
  YS02001915YS02001910 CONDUIT    310.47     0  03:07      0.56    0.15    1.00
  YS02001918YS02001915 CONDUIT    142.79     0  03:08      0.44    0.08    0.85
  YS02001923YS02001920 CONDUIT    128.76     0  03:05      0.66    0.06    0.64
  YS02001926YS02001923 CONDUIT    105.34     0  03:04      0.77    0.15    0.32
  YS02001929YS02001926 CONDUIT    100.38     0  03:01      0.84    0.05    0.25
  YS02001920YS02001918 CONDUIT    140.41     0  03:08      0.65    0.14    0.74
  YS02001629YS02163301 CONDUIT    192.83     0  02:23      0.25    0.24    1.00
  YS02001619YS02001622 CONDUIT    183.67     0  02:54      0.67    0.27    1.00
  YS02001622YS02001625 CONDUIT    183.51     0  02:54      0.32    0.10    1.00
  YS02001625YS02001629 CONDUIT    179.86     0  02:08      0.27    0.09    1.00
  YS02163301YS02001633 CONDUIT    192.74     0  02:22      0.25    0.18    1.00
  YS02163601YS02164001 CONDUIT    373.88     0  02:39      0.48    0.33    1.00
  YS02164001YS02001641 CONDUIT    374.41     0  02:39      0.48    0.51    1.00
  YS02001641YS02001644 CONDUIT    374.77     0  02:39      0.48    1.21    1.00
  YS02001647YS02001649 CONDUIT    568.85     0  02:39      0.72    0.30    1.00
  YS02006553YS02006556 CONDUIT    572.47     0  02:46      0.73    0.49    1.00
  YS02006556YS02006558 CONDUIT    572.13     0  02:46      0.73    0.45    1.00
  YSB6556YSB1171       CONDUIT     18.03     0  02:09      0.07    0.02    0.61
  YS02001907YS02006553 CONDUIT    572.69     0  02:46      0.64    0.67    1.00
  YS02006558YS02006561 CONDUIT    837.03     0  02:46      3.35    1.85    1.00
  YS02001633YS02163601 CONDUIT    373.73     0  02:39      0.48    0.39    1.00
  YS02001644YS02001647 CONDUIT    568.32     0  02:39      0.72    0.33    1.00
  YS02001745YS02001748 CONDUIT    606.63     0  02:26      1.53    0.23    0.94
  YS02001748YS02001751 CONDUIT    332.02     0  02:14      1.14    0.17    1.00
  YS02001751YS02001754 CONDUIT    250.16     0  02:25      0.97    0.12    1.00
  YS02001754YS02001757 CONDUIT    250.22     0  02:25      0.33    0.10    1.00
  YS02001882YS02001884 CONDUIT     13.33     0  03:32      0.12    0.02    1.00
  YS02001884YS02001887 CONDUIT     25.17     0  02:48      0.09    0.03    1.00
  YS02001890YS02001895 CONDUIT    302.04     0  02:49      0.45    0.14    1.00
  YS02001895YS02001898 CONDUIT    302.73     0  02:58      0.57    0.53    1.00
  YS02001898YS02001901 CONDUIT    298.96     0  02:46      0.50    0.19    1.00
  YS02001901YS02001904 CONDUIT    300.12     0  02:47      0.46    0.47    1.00
  YS02001904YS02001907 CONDUIT    298.24     0  02:46      0.39    0.10    1.00
  YS02001887YS02001890 CONDUIT    301.96     0  02:50      0.41    0.52    1.00
  YS02001652YS02001649 CONDUIT    303.66     0  02:22      0.58    0.15    1.00
  YS02001655YS02001652 CONDUIT    304.03     0  02:22      1.05    0.15    1.00
  YS02001658YS02001655 CONDUIT    393.78     0  02:13      1.31    0.17    1.00
  YS02001661YS02001658 CONDUIT    603.47     0  02:22      1.61    0.24    1.00
  YS02001664YS02001661 CONDUIT    619.79     0  02:42      1.57    0.19    0.72
  YSB1154YSB6556       CONDUIT     17.99     0  02:06      0.16    0.03    0.50
  YSB1174YSB1171       CONDUIT     13.76     0  01:36      0.06    0.02    0.62
  YSB1171HS02004479    CONDUIT     31.20     0  02:09      0.54    0.02    0.48
  HS02004881HS02006253 CONDUIT     56.61     0  02:08      1.79    0.01    0.17
  YS02001793JiankangQianchi CONDUIT    815.37     0  03:02     16.38    0.06    1.00
  YS02001757CaochengTiaoxuchi CONDUIT   1461.07     0  02:38      2.39    0.64    1.00
  WSF200WS02003060     CONDUIT    601.73     0  02:13      2.12    0.13    0.33
  1                    CONDUIT    798.24     0  02:29      3.13    0.28    0.36
  2                    CONDUIT     31.91     0  02:10      3.49    0.08    0.19
  3                    CONDUIT    597.65     0  00:00     10.05    0.95    0.86
  4                    CONDUIT      0.00     0  00:00      0.00    0.00    0.00
  CC-Pump-1            PUMP       200.00     0  02:20              1.00
  CC-Pump-2            PUMP       200.00     0  01:42              1.00
  JK-Pump-1            PUMP       300.00     0  00:00              1.00
  JK-Pump-2            PUMP       300.00     0  00:00              1.00
  XR-Pump-1            PUMP        95.00     0  00:00              1.00
  XR-Pump-2            PUMP        95.00     0  00:00              1.00
  XR-Pump-3            PUMP        95.00     0  00:30              1.00
  XR-Pump-4            PUMP        95.00     0  03:00              1.00
  
  
  ***************************
  Flow Classification Summary
  ***************************
  
  -------------------------------------------------------------------------------------
                      Adjusted    ---------- Fraction of Time in Flow Class ---------- 
                       /Actual         Up    Down  Sub   Sup   Up    Down  Norm  Inlet 
  Conduit               Length    Dry  Dry   Dry   Crit  Crit  Crit  Crit  Ltd   Ctrl  
  -------------------------------------------------------------------------------------
  WS02003066WSF200        1.00   0.08  0.00  0.00  0.00  0.92  0.00  0.00  0.61  0.00
  WS02006287WS02006284    1.00   0.04  0.01  0.00  0.47  0.48  0.00  0.00  0.68  0.00
  WS02006284WS02006280    1.00   0.04  0.00  0.00  0.00  0.00  0.00  0.96  0.00  0.00
  WS02006280WS02006229    1.00   0.04  0.00  0.00  0.00  0.00  0.00  0.96  0.00  0.00
  WS02006229WS02006228    1.00   0.00  0.00  0.00  0.98  0.00  0.00  0.02  0.00  0.00
  WS02006256WS02006235    1.00   0.00  0.00  0.00  0.99  0.01  0.00  0.00  0.00  0.00
  WS02006253WS02006251    1.00   0.03  0.01  0.00  0.95  0.00  0.01  0.00  0.00  0.00
  WS02006252WS02006251    1.00   0.07  0.00  0.00  0.00  0.00  0.93  0.00  0.00  0.00
  WS02006251WS02006249    1.00   0.00  0.00  0.00  1.00  0.00  0.00  0.00  0.78  0.00
  WS02006249WS02006248    1.00   0.00  0.02  0.00  0.33  0.00  0.65  0.00  0.00  0.00
  WS02006248WS02006247    1.00   0.02  0.00  0.00  0.97  0.00  0.00  0.01  0.67  0.00
  WS02006247WS02006245    1.00   0.02  0.00  0.00  0.96  0.00  0.00  0.02  0.00  0.00
  WS02006245WS02006243    1.00   0.02  0.00  0.00  0.94  0.00  0.00  0.04  0.13  0.00
  WS02006243WS02006242    1.00   0.01  0.01  0.00  0.98  0.00  0.00  0.00  0.17  0.00
  WS02006242WS02006240    1.00   0.01  0.00  0.00  0.99  0.00  0.00  0.00  0.00  0.00
  WS02006240WS02006239    1.00   0.00  0.00  0.00  0.96  0.00  0.00  0.03  0.02  0.00
  WS02006239WS02006238    1.00   0.00  0.00  0.00  1.00  0.00  0.00  0.00  0.00  0.00
  WS02006238WS02006235    1.00   0.00  0.00  0.00  1.00  0.00  0.00  0.00  0.00  0.00
  WS02006235WS02006234    1.00   0.00  0.00  0.00  0.96  0.00  0.04  0.00  0.00  0.00
  WS02006234WS02006232    1.00   0.00  0.00  0.00  1.00  0.00  0.00  0.00  0.00  0.00
  WS02006232WS02006231    1.00   0.00  0.00  0.00  0.99  0.00  0.01  0.00  0.00  0.00
  WS02006231WS02006230    1.00   0.00  0.00  0.00  0.37  0.00  0.62  0.00  0.00  0.00
  WS02006230WS02006229    1.00   0.00  0.00  0.00  0.98  0.00  0.00  0.02  0.01  0.00
  WS02006228WS02006109    1.00   0.00  0.00  0.00  0.99  0.00  0.00  0.00  0.00  0.00
  WS02006116WS02004401    1.00   0.02  0.00  0.00  0.98  0.00  0.00  0.00  0.00  0.00
  WS02006115WS02006116    1.00   0.02  0.00  0.00  0.96  0.00  0.00  0.01  0.01  0.00
  WS02006113WS02006111    1.00   0.02  0.00  0.00  0.00  0.98  0.00  0.00  0.18  0.00
  WS02006112WS02006115    1.00   0.02  0.00  0.00  0.98  0.00  0.00  0.00  0.00  0.00
  WS02006111WS02006112    1.00   0.02  0.00  0.00  0.98  0.00  0.00  0.00  0.97  0.00
  WS02006110WS02006113    1.00   0.02  0.00  0.00  0.98  0.00  0.00  0.00  0.00  0.00
  WS02006109WS02006110    1.00   0.00  0.02  0.00  0.98  0.00  0.00  0.00  0.00  0.00
  WS02004411WS02004412    1.00   0.06  0.00  0.00  0.94  0.00  0.00  0.00  0.00  0.00
  WS02004401WS02004402    1.00   0.02  0.00  0.00  0.98  0.00  0.00  0.00  0.00  0.00
  WS02004413WS02003067    1.00   0.06  0.02  0.00  0.00  0.00  0.93  0.00  0.00  0.00
  WS02004412WS02004413    1.00   0.06  0.00  0.00  0.94  0.00  0.00  0.00  0.00  0.00
  WS02004410WS02004411    1.00   0.05  0.00  0.00  0.95  0.00  0.00  0.00  0.00  0.00
  WS02004409WS02004410    1.00   0.05  0.00  0.00  0.95  0.00  0.00  0.00  0.00  0.00
  WS02004407WS02004409    1.00   0.05  0.00  0.00  0.94  0.01  0.00  0.00  0.81  0.00
  WS02004406WS02004407    1.00   0.00  0.05  0.00  0.95  0.00  0.00  0.00  0.00  0.00
  WS02004405WS02004406    1.00   0.00  0.00  0.00  1.00  0.00  0.00  0.00  0.02  0.00
  WS02004404WS02004405    1.00   0.00  0.00  0.00  1.00  0.00  0.00  0.00  0.00  0.00
  WS02004403WS02004404    1.00   0.00  0.02  0.00  0.98  0.00  0.00  0.00  0.02  0.00
  WS02004402WS02004403    1.00   0.02  0.00  0.00  0.98  0.00  0.00  0.00  0.00  0.00
  WS02004139WS02001211    1.00   0.00  0.00  0.00  0.99  0.00  0.01  0.00  0.00  0.00
  WS02004138WS02004139    1.00   0.00  0.00  0.00  0.98  0.01  0.00  0.00  1.00  0.00
  WS02003067WS02003066    1.00   0.07  0.01  0.00  0.92  0.00  0.00  0.00  0.00  0.00
  WS02001213WS02003059    1.00   0.00  0.01  0.00  0.99  0.00  0.00  0.00  0.00  0.00
  WS02001212WS02001213    1.00   0.01  0.00  0.00  0.38  0.00  0.61  0.00  0.00  0.00
  WS02001211WS02001212    1.00   0.00  0.01  0.00  0.99  0.00  0.00  0.00  0.00  0.00
  WS02003072WS02003073    1.00   0.00  0.00  0.00  0.00  0.00  0.00  1.00  0.00  0.00
  WS02003069WS02003072    1.00   0.00  0.00  0.00  0.99  0.01  0.00  0.00  0.56  0.00
  WS02003060WS02003069    1.00   0.00  0.00  0.00  0.98  0.02  0.00  0.00  0.19  0.00
  WS02003059WS02003060    1.00   0.00  0.00  0.00  0.99  0.01  0.00  0.00  0.01  0.00
  HS02004901HS02004770    1.00   0.04  0.00  0.00  0.96  0.00  0.00  0.00  0.00  0.00
  HS02004876HS02004881    1.00   0.02  0.00  0.00  0.98  0.00  0.00  0.00  0.00  0.00
  HS02004870HS02004876    1.00   0.01  0.00  0.00  0.99  0.00  0.00  0.00  0.95  0.00
  HS02004842HS02004848    1.00   0.00  0.04  0.00  0.96  0.00  0.00  0.00  0.58  0.00
  HS02004837HS02004842    1.00   0.00  0.00  0.00  0.99  0.01  0.00  0.00  0.11  0.00
  HS02004830HS02004837    1.00   0.00  0.00  0.00  1.00  0.00  0.00  0.00  0.99  0.00
  HS02004824HS02004830    1.00   0.00  0.00  0.00  1.00  0.00  0.00  0.00  0.00  0.00
  HS02004817HS02004824    1.00   0.00  0.00  0.00  1.00  0.00  0.00  0.00  1.00  0.00
  HS02004770HS02004777    1.00   0.00  0.04  0.00  0.96  0.00  0.00  0.00  0.03  0.00
  HS02004799HS02004480    1.00   0.00  0.02  0.00  0.95  0.00  0.02  0.00  0.00  0.00
  HS02004792HS02004799    1.00   0.00  0.00  0.00  0.98  0.02  0.00  0.00  0.98  0.00
  HS02004788HS02004792    1.00   0.00  0.00  0.00  0.98  0.02  0.00  0.00  0.98  0.00
  HS02004785HS02004788    1.00   0.00  0.00  0.00  1.00  0.00  0.00  0.00  0.00  0.00
  HS02004777HS02004785    1.00   0.00  0.00  0.00  1.00  0.00  0.00  0.00  0.12  0.00
  HS02004480HS02004478    1.00   0.04  0.00  0.00  0.53  0.00  0.00  0.43  0.00  0.00
  HS02004479HS02004480    1.00   0.02  0.00  0.00  0.98  0.00  0.00  0.00  0.12  0.00
  HS02004862HS02004870    1.00   0.00  0.00  0.00  1.00  0.00  0.00  0.00  0.04  0.00
  HS02004848HS02004852    1.00   0.04  0.00  0.00  0.96  0.00  0.00  0.00  0.76  0.00
  HS02004856HS02004862    1.00   0.00  0.05  0.00  0.95  0.00  0.00  0.00  0.83  0.00
  HS02004852HS02004856    1.00   0.04  0.00  0.00  0.96  0.00  0.00  0.00  0.86  0.00
  HS02004802HS02004478    1.00   0.04  0.00  0.00  0.96  0.00  0.00  0.00  0.03  0.00
  HS02004478WS02006287    1.00   0.05  0.00  0.00  0.61  0.34  0.00  0.00  0.65  0.00
  HS02004817HS02004807    1.00   0.00  0.04  0.00  0.96  0.00  0.00  0.00  0.01  0.00
  HS02004807HS02004802    1.00   0.04  0.00  0.00  0.95  0.00  0.00  0.00  0.00  0.00
  YS02001759YS02001757    1.00   0.00  0.00  0.00  1.00  0.00  0.00  0.00  0.16  0.00
  YS02001762YS02001759    1.00   0.00  0.00  0.00  1.00  0.00  0.00  0.00  0.03  0.00
  YS02001765YS02001762    1.00   0.00  0.00  0.00  1.00  0.00  0.00  0.00  0.14  0.00
  YS02001770YS02001767    1.00   0.00  0.00  0.00  1.00  0.00  0.00  0.00  0.00  0.00
  YS02001774YS02001770    1.00   0.00  0.04  0.00  0.96  0.00  0.00  0.00  0.03  0.00
  YS02001779YS02001774    1.00   0.00  0.00  0.00  1.00  0.00  0.00  0.00  0.18  0.00
  YS02001649YS02001757    1.00   0.00  0.00  0.00  1.00  0.00  0.00  0.00  0.16  0.00
  YS02001767YS02001765    1.00   0.00  0.00  0.00  1.00  0.00  0.00  0.00  0.00  0.00
  YS02006561YS02001783    1.00   0.05  0.00  0.00  0.49  0.45  0.00  0.00  0.59  0.00
  YS02001783YS02001784    1.00   0.00  0.05  0.00  0.95  0.00  0.00  0.00  0.00  0.00
  YS02001784YS02001785    1.00   0.00  0.00  0.00  1.00  0.00  0.00  0.00  0.17  0.00
  YS02001788YS02001790    1.00   0.00  0.00  0.00  0.48  0.52  0.00  0.00  0.52  0.00
  YS02001790YS02001791    1.00   0.00  0.00  0.00  0.45  0.55  0.00  0.00  0.42  0.00
  YS02001791YS02001793    1.00   0.00  0.00  0.00  0.47  0.53  0.00  0.00  0.02  0.00
  YS02001910YS02001907    1.00   0.00  0.00  0.00  0.98  0.00  0.00  0.02  0.12  0.00
  YS02001786YS02001788    1.00   0.00  0.00  0.00  0.46  0.54  0.00  0.00  0.00  0.00
  YS02001915YS02001910    1.00   0.00  0.00  0.00  0.99  0.01  0.00  0.00  0.16  0.00
  YS02001918YS02001915    1.00   0.00  0.01  0.00  0.98  0.01  0.00  0.00  0.59  0.00
  YS02001923YS02001920    1.00   0.00  0.00  0.00  1.00  0.00  0.00  0.00  0.88  0.00
  YS02001926YS02001923    1.00   0.00  0.03  0.00  0.06  0.00  0.91  0.00  0.00  0.00
  YS02001929YS02001926    1.00   0.00  0.04  0.00  0.96  0.00  0.00  0.00  0.87  0.00
  YS02001920YS02001918    1.00   0.00  0.01  0.00  0.99  0.00  0.00  0.00  0.00  0.00
  YS02001629YS02163301    1.00   0.05  0.00  0.00  0.95  0.00  0.00  0.00  0.00  0.00
  YS02001619YS02001622    1.00   0.04  0.00  0.00  0.96  0.00  0.00  0.00  0.00  0.00
  YS02001622YS02001625    1.00   0.04  0.00  0.00  0.96  0.00  0.00  0.00  0.04  0.00
  YS02001625YS02001629    1.00   0.04  0.01  0.00  0.93  0.00  0.02  0.00  0.00  0.00
  YS02163301YS02001633    1.00   0.00  0.05  0.00  0.95  0.00  0.00  0.00  0.00  0.00
  YS02163601YS02164001    1.00   0.00  0.03  0.00  0.97  0.00  0.00  0.00  0.00  0.00
  YS02164001YS02001641    1.00   0.01  0.02  0.00  0.97  0.00  0.00  0.00  0.06  0.00
  YS02001641YS02001644    1.00   0.00  0.01  0.00  0.99  0.00  0.00  0.00  0.00  0.00
  YS02001647YS02001649    1.00   0.00  0.05  0.00  0.95  0.00  0.00  0.00  0.01  0.00
  YS02006553YS02006556    1.00   0.02  0.00  0.00  0.98  0.00  0.00  0.00  0.03  0.00
  YS02006556YS02006558    1.00   0.00  0.01  0.00  0.99  0.00  0.00  0.00  0.00  0.00
  YSB6556YSB1171          1.00   0.02  0.02  0.00  0.96  0.00  0.00  0.00  0.00  0.00
  YS02001907YS02006553    1.00   0.00  0.02  0.00  0.98  0.00  0.00  0.00  0.00  0.00
  YS02006558YS02006561    1.00   0.05  0.00  0.00  0.11  0.84  0.00  0.00  0.51  0.00
  YS02001633YS02163601    1.00   0.00  0.01  0.00  0.99  0.00  0.00  0.00  0.15  0.00
  YS02001644YS02001647    1.00   0.00  0.05  0.00  0.95  0.00  0.00  0.00  0.00  0.00
  YS02001745YS02001748    1.00   0.00  0.00  0.00  0.88  0.01  0.00  0.11  0.05  0.00
  YS02001748YS02001751    1.00   0.00  0.00  0.00  0.97  0.03  0.00  0.00  0.14  0.00
  YS02001751YS02001754    1.00   0.00  0.00  0.00  0.94  0.00  0.00  0.06  0.02  0.00
  YS02001754YS02001757    1.00   0.00  0.00  0.00  0.99  0.01  0.00  0.00  0.18  0.00
  YS02001882YS02001884    1.00   0.05  0.00  0.00  0.95  0.00  0.00  0.00  0.00  0.00
  YS02001884YS02001887    1.00   0.03  0.01  0.00  0.96  0.00  0.00  0.00  0.00  0.00
  YS02001890YS02001895    1.00   0.00  0.04  0.00  0.95  0.00  0.00  0.00  0.00  0.00
  YS02001895YS02001898    1.00   0.05  0.00  0.00  0.94  0.00  0.01  0.00  0.00  0.00
  YS02001898YS02001901    1.00   0.05  0.00  0.00  0.95  0.00  0.00  0.00  0.01  0.00
  YS02001901YS02001904    1.00   0.05  0.00  0.00  0.95  0.00  0.00  0.00  0.00  0.00
  YS02001904YS02001907    1.00   0.00  0.05  0.00  0.95  0.00  0.00  0.00  0.00  0.00
  YS02001887YS02001890    1.00   0.00  0.00  0.00  0.98  0.00  0.02  0.00  0.00  0.00
  YS02001652YS02001649    1.00   0.00  0.00  0.00  1.00  0.00  0.00  0.00  0.16  0.00
  YS02001655YS02001652    1.00   0.00  0.00  0.00  0.94  0.00  0.00  0.06  0.02  0.00
  YS02001658YS02001655    1.00   0.00  0.05  0.00  0.93  0.03  0.00  0.00  0.03  0.00
  YS02001661YS02001658    1.00   0.05  0.00  0.00  0.88  0.08  0.00  0.00  0.04  0.00
  YS02001664YS02001661    1.00   0.04  0.00  0.00  0.82  0.14  0.00  0.00  0.19  0.00
  YSB1154YSB6556          1.00   0.04  0.00  0.00  0.96  0.00  0.00  0.00  0.02  0.00
  YSB1174YSB1171          1.00   0.03  0.01  0.00  0.96  0.00  0.00  0.00  0.00  0.00
  YSB1171HS02004479       1.00   0.02  0.00  0.00  0.97  0.00  0.00  0.00  0.10  0.00
  HS02004881HS02006253    1.00   0.03  0.00  0.00  0.28  0.01  0.00  0.68  0.16  0.00
  YS02001793JiankangQianchi    1.00   0.00  0.00  0.00  0.68  0.32  0.00  0.00  0.14  0.00
  YS02001757CaochengTiaoxuchi    1.00   0.00  0.07  0.00  0.91  0.02  0.00  0.00  0.00  0.00
  WSF200WS02003060        1.00   0.00  0.08  0.00  0.60  0.32  0.00  0.00  0.56  0.00
  1                       1.00   0.00  0.00  0.00  0.00  1.00  0.00  0.00  0.20  0.00
  2                       1.00   0.77  0.00  0.00  0.00  0.23  0.00  0.00  0.00  0.00
  3                       1.00   0.11  0.00  0.00  0.00  0.89  0.00  0.00  0.00  0.00
  4                       1.00   1.00  0.00  0.00  0.00  0.00  0.00  0.00  0.00  0.00
  
  
  *************************
  Conduit Surcharge Summary
  *************************
  
  ----------------------------------------------------------------------------
                                                           Hours        Hours 
                         --------- Hours Full --------   Above Full   Capacity
  Conduit                Both Ends  Upstream  Dnstream   Normal Flow   Limited
  ----------------------------------------------------------------------------
  WS02006229WS02006228        1.36      1.38      1.36      1.59         1.36
  WS02006256WS02006235        6.28      6.28      7.83      4.87         0.01
  WS02006249WS02006248        0.01      0.01      0.01      1.20         0.01
  WS02006247WS02006245        0.01      0.01      0.01      1.27         0.01
  WS02006243WS02006242        0.01      0.01      1.00      0.01         0.01
  WS02006242WS02006240        0.73      0.73      1.05      0.01         0.01
  WS02006240WS02006239        0.84      0.84      1.01      0.01         0.01
  WS02006239WS02006238        1.09      1.09      1.13      0.01         0.01
  WS02006238WS02006235        1.12      1.12      1.15      0.01         0.01
  WS02006235WS02006234        1.04      1.04      1.11      5.98         0.01
  WS02006234WS02006232        1.09      1.09      1.21      0.01         0.01
  WS02006232WS02006231        0.67      0.67      1.21      0.01         0.01
  WS02006231WS02006230        0.12      0.12      0.75      6.27         0.01
  WS02006230WS02006229        1.47      1.50      1.47      6.33         1.47
  WS02006228WS02006109        1.37      1.43      1.37      1.85         1.37
  WS02006112WS02006115        0.01      0.01      1.20      0.01         0.01
  WS02006111WS02006112        0.01      0.01      1.62      0.01         0.01
  WS02006110WS02006113        0.01      0.01      1.40      0.01         0.01
  WS02006109WS02006110        1.11      1.11      1.43      1.11         0.01
  WS02004405WS02004406        0.01      0.01      0.01      1.16         0.01
  WS02004404WS02004405        0.01      0.33      0.01      6.24         0.01
  WS02004403WS02004404        0.01      0.01      0.33      0.01         0.01
  WS02003072WS02003073        0.01      0.01      0.01      1.77         0.01
  YS02001759YS02001757        5.98      5.98      6.04      0.01         0.01
  YS02001762YS02001759        5.95      5.95      5.98      0.01         0.01
  YS02001765YS02001762        5.93      5.93      5.95      0.01         0.01
  YS02001770YS02001767        5.92      5.93      5.92      0.08         0.75
  YS02001774YS02001770        5.89      5.89      5.95      0.01         0.01
  YS02001779YS02001774        5.70      5.70      5.95      0.01         0.01
  YS02001649YS02001757        5.96      5.96      6.04      0.01         0.01
  YS02001767YS02001765        5.92      5.92      5.93      0.01         0.01
  YS02006561YS02001783        0.01      0.01      0.71      0.01         0.01
  YS02001783YS02001784        0.71      0.71      0.74      1.03         0.49
  YS02001784YS02001785        0.71      0.74      0.71      2.02         0.70
  YS02001788YS02001790        0.70      0.70      2.08      0.01         0.01
  YS02001790YS02001791        2.08      2.08      2.21      0.01         0.01
  YS02001791YS02001793        2.21      2.21      2.50      0.01         0.01
  YS02001910YS02001907        0.52      0.52      1.44      0.01         0.01
  YS02001786YS02001788        0.70      0.71      0.70      1.64         0.70
  YS02001915YS02001910        0.16      0.16      0.52      0.01         0.01
  YS02001918YS02001915        0.01      0.01      0.16      0.01         0.01
  YS02001629YS02163301        5.86      5.86      5.91      0.01         0.01
  YS02001619YS02001622        5.52      5.52      5.58      0.01         0.01
  YS02001622YS02001625        5.58      5.58      5.77      0.01         0.01
  YS02001625YS02001629        5.53      5.53      5.77      0.01         0.01
  YS02163301YS02001633        5.91      5.91      5.95      0.01         0.01
  YS02163601YS02164001        5.94      5.94      5.96      0.01         0.01
  YS02164001YS02001641        5.94      5.94      5.94      0.01         0.02
  YS02001641YS02001644        5.94      5.94      5.95      1.04         1.20
  YS02001647YS02001649        5.75      5.75      5.96      0.01         0.01
  YS02006553YS02006556        1.01      1.01      1.51      0.01         0.01
  YS02006556YS02006558        1.29      1.29      1.59      0.01         0.01
  YS02001907YS02006553        2.04      2.04      2.25      0.01         0.01
  YS02006558YS02006561        0.35      0.95      0.35      1.89         0.35
  YS02001633YS02163601        5.93      5.93      5.96      0.01         0.01
  YS02001644YS02001647        5.75      5.75      5.95      0.01         0.01
  YS02001745YS02001748        0.01      0.01      5.26      0.01         0.01
  YS02001748YS02001751        5.34      5.34      5.51      0.01         0.01
  YS02001751YS02001754        5.51      5.51      5.73      0.01         0.01
  YS02001754YS02001757        5.75      5.75      6.04      0.01         0.01
  YS02001882YS02001884        0.19      0.19      0.26      0.01         0.01
  YS02001884YS02001887        0.36      0.36      0.39      0.01         0.01
  YS02001890YS02001895        0.11      0.11      0.65      0.01         0.01
  YS02001895YS02001898        0.03      0.03      0.11      0.01         0.01
  YS02001898YS02001901        0.14      0.14      0.34      0.01         0.01
  YS02001901YS02001904        0.30      0.30      0.34      0.01         0.01
  YS02001904YS02001907        0.30      0.30      1.54      0.01         0.01
  YS02001887YS02001890        0.44      0.44      0.47      0.01         0.01
  YS02001652YS02001649        5.76      5.76      5.96      0.01         0.01
  YS02001655YS02001652        5.56      5.56      5.74      0.01         0.01
  YS02001658YS02001655        5.29      5.29      5.56      0.01         0.01
  YS02001661YS02001658        0.20      0.20      5.29      0.01         0.01
  YS02001664YS02001661        0.01      0.01      1.10      0.01         0.01
  YS02001793JiankangQianchi        2.42      2.42      3.52      0.01         0.01
  YS02001757CaochengTiaoxuchi        5.17      5.17      6.04      0.01         0.01
  3                           0.01      0.01      0.01      0.01         0.01
  
  
  ***************
  Pumping Summary
  ***************
  
  ---------------------------------------------------------------------------------------------------------
                                                  Min       Avg       Max     Total     Power    % Time Off
                        Percent   Number of      Flow      Flow      Flow    Volume     Usage    Pump Curve
  Pump                 Utilized   Start-Ups       LPS       LPS       LPS  10^6 ltr     Kw-hr    Low   High
  ---------------------------------------------------------------------------------------------------------
  CC-Pump-1               10.64           1      0.00    161.60    200.00     0.480      0.94    0.0    1.3
  CC-Pump-2                8.84           1      0.00    166.31    200.00     0.411      1.64    0.0   77.5
  JK-Pump-1              100.00           1      0.00    263.88    300.00     5.517     57.33    0.0    0.0
  JK-Pump-2               38.30           1      0.00    243.80    300.00     1.473     22.14    0.0    0.0
  XR-Pump-1               36.17           2      0.00     79.38     95.00     0.884      7.95    0.0    0.0
  XR-Pump-2               17.03           2      0.00     78.28     95.00     0.371      2.71    0.0    0.0
  XR-Pump-3               85.10           2      0.00     90.11     95.00     2.194     12.87    0.0    0.0
  XR-Pump-4               63.83           1      0.00     92.31     95.00     1.681      7.63    0.0    0.0
  

  Analysis begun on:  Fri Dec 31 22:13:08 2021
  Analysis ended on:  Fri Dec 31 22:13:11 2021
  Total elapsed time: 00:00:03