
  EPA STORM WATER MANAGEMENT MODEL - VERSION 5.1 (Build 5.3.0.dev0)
  --------------------------------------------------------------

  WARNING 04: minimum elevation drop used for Conduit WS02004404WS02004405
  WARNING 03: negative offset ignored for Link YS02001904YS02001907
  
  *********************************************************
  NOTE: The summary statistics displayed in this report are
  based on results found at every computational time step,  
  not just on results from each reporting time step.
  *********************************************************
  
  ****************
  Analysis Options
  ****************
  Flow Units ............... LPS
  Process Models:
    Rainfall/Runoff ........ YES
    RDII ................... NO
    Snowmelt ............... NO
    Groundwater ............ NO
    Flow Routing ........... YES
    Ponding Allowed ........ NO
    Water Quality .......... NO
  Infiltration Method ...... HORTON
  Flow Routing Method ...... DYNWAVE
  Surcharge Method ......... EXTRAN
  Starting Date ............ 08/28/2015 08:00:00
  Ending Date .............. 08/28/2015 15:50:00
  Antecedent Dry Days ...... 8.0
  Report Time Step ......... 00:01:00
  Wet Time Step ............ 00:01:00
  Dry Time Step ............ 00:01:00
  Routing Time Step ........ 5.00 sec
  Variable Time Step ....... YES
  Maximum Trials ........... 8
  Number of Threads ........ 4
  Head Tolerance ........... 0.001500 m
  
  
  **************************        Volume         Depth
  Runoff Quantity Continuity     hectare-m            mm
  **************************     ---------       -------
  Total Precipitation ......         4.854        10.627
  Evaporation Loss .........         0.000         0.000
  Infiltration Loss ........         1.246         2.727
  Surface Runoff ...........         2.607         5.707
  Final Storage ............         1.002         2.194
  Continuity Error (%) .....        -0.015
  
  
  **************************        Volume        Volume
  Flow Routing Continuity        hectare-m      10^6 ltr
  **************************     ---------     ---------
  Dry Weather Inflow .......         0.616         6.165
  Wet Weather Inflow .......         2.606        26.059
  Groundwater Inflow .......         0.000         0.000
  RDII Inflow ..............         0.000         0.000
  External Inflow ..........         0.102         1.024
  External Outflow .........         1.546        15.456
  Flooding Loss ............         1.271        12.705
  Evaporation Loss .........         0.000         0.000
  Exfiltration Loss ........         0.000         0.000
  Initial Stored Volume ....         0.076         0.761
  Final Stored Volume ......         0.629         6.290
  Continuity Error (%) .....        -1.304
  
  
  *************************
  Highest Continuity Errors
  *************************
  Node HS02004842 (17.68%)
  Node YS02001884 (11.37%)
  Node JK-storage (-5.68%)
  Node YSB1171 (3.62%)
  Node HS02004817 (3.28%)
  
  
  ***************************
  Time-Step Critical Elements
  ***************************
  Link 3 (83.44%)
  Link YS02001793JiankangQianchi (6.78%)
  Link WS02006252WS02006251 (2.65%)
  Link WS02006280WS02006229 (1.14%)
  
  
  ********************************
  Highest Flow Instability Indexes
  ********************************
  Link WS02006113WS02006111 (51)
  Link YS02163301YS02001633 (47)
  Link YS02001629YS02163301 (47)
  Link YS02163601YS02164001 (46)
  Link YS02001619YS02001622 (45)
  
  
  *************************
  Routing Time Step Summary
  *************************
  Minimum Time Step           :     0.50 sec
  Average Time Step           :     1.00 sec
  Maximum Time Step           :     5.00 sec
  Percent in Steady State     :     0.00
  Average Iterations per Step :     4.75
  Percent Not Converging      :    23.92
  
  
  ***************************
  Subcatchment Runoff Summary
  ***************************
  
  ------------------------------------------------------------------------------------------------------------------------------
                            Total      Total      Total      Total     Imperv       Perv      Total       Total     Peak  Runoff
                           Precip      Runon       Evap      Infil     Runoff     Runoff     Runoff      Runoff   Runoff   Coeff
  Subcatchment                 mm         mm         mm         mm         mm         mm         mm    10^6 ltr      LPS
  ------------------------------------------------------------------------------------------------------------------------------
  sub0                      10.63       0.00       0.00       0.74       8.62       0.00       8.62        0.01     1.33   0.811
  sub1                      10.63       0.00       0.00       1.17       8.20       0.00       8.20        0.05     9.09   0.772
  sub2                      10.63       0.00       0.00       3.93       5.79       0.00       5.79        0.05     8.42   0.544
  sub3                      10.63       0.00       0.00       3.93       5.75       0.00       5.75        0.13    19.27   0.541
  sub4                      10.63       0.00       0.00       1.17       8.05       0.00       8.05        0.17    23.93   0.757
  sub5                      10.63       0.00       0.00       0.74       8.57       0.00       8.57        0.10    16.17   0.806
  sub7                      10.63       0.00       0.00       0.96       8.41       0.00       8.41        0.03     5.13   0.792
  sub8                      10.63       0.00       0.00       0.96       8.41       0.00       8.41        0.05     9.46   0.791
  sub9                      10.63       0.00       0.00       0.96       8.40       0.00       8.40        0.04     7.08   0.791
  sub10                     10.63       0.00       0.00       0.85       8.48       0.00       8.48        0.09    15.87   0.798
  sub11                     10.63       0.00       0.00       0.85       8.50       0.00       8.50        0.10    17.56   0.800
  sub12                     10.63       0.00       0.00       1.38       8.06       0.00       8.06        0.07    13.15   0.758
  sub14                     10.63       0.00       0.00       0.96       8.40       0.00       8.40        0.08    13.93   0.791
  sub15                     10.63       0.00       0.00       3.19       6.46       0.00       6.46        0.11    19.14   0.608
  sub16                     10.63       0.00       0.00       3.51       6.20       0.00       6.20        0.06    12.01   0.584
  sub17                     10.63       0.00       0.00       3.40       6.29       0.00       6.29        0.05     9.91   0.592
  sub22                     10.63       0.00       0.00       4.57       5.27       0.00       5.27        0.33    59.53   0.496
  sub23                     10.63       0.00       0.00       3.93       5.82       0.00       5.82        0.28    50.05   0.548
  sub60                     10.63       0.00       0.00       1.28       6.54       0.00       6.54        1.98   196.13   0.615
  sub61                     10.63       0.00       0.00       1.81       6.69       0.00       6.69        2.06   224.83   0.630
  sub62                     10.63       0.00       0.00       0.85       7.26       0.00       7.26        2.23   236.97   0.684
  sub63                     10.63       0.00       0.00       3.08       5.87       0.00       5.87        1.78   199.96   0.553
  sub64                     10.63       0.00       0.00       1.59       6.27       0.00       6.27        1.91   187.22   0.590
  sub65                     10.63       0.00       0.00       1.38       6.37       0.00       6.37        1.96   190.91   0.599
  sub66                     10.63       0.00       0.00       3.08       5.39       0.00       5.39        1.65   167.73   0.507
  sub67                     10.63       0.00       0.00       0.85       7.71       0.00       7.71        2.38   272.25   0.726
  sub68                     10.63       0.00       0.00       1.49       7.05       0.00       7.05        2.17   241.26   0.664
  sub69                     10.63       0.00       0.00       1.59       7.35       0.00       7.35        1.72   204.41   0.692
  sub70                     10.63       7.50       0.00       6.16       9.71       0.01       9.71        2.22   229.02   0.536
  sub71                     10.63       0.00       0.00       0.85       7.06       0.00       7.06        1.67   170.86   0.664
  sub72                     10.63       0.00       0.00       0.74       5.52       0.00       5.52        1.12    91.59   0.519
  sub73                     10.63       9.45       0.00       6.83      10.48       0.00      10.49        2.46   215.21   0.522
  sub74                     10.63       0.00       0.00       7.97       2.19       0.00       2.19        0.88   108.49   0.206
  
  
  ******************
  Node Depth Summary
  ******************
  
  ---------------------------------------------------------------------------------
                                 Average  Maximum  Maximum  Time of Max    Reported
                                   Depth    Depth      HGL   Occurrence   Max Depth
  Node                 Type       Meters   Meters   Meters  days hr:min      Meters
  ---------------------------------------------------------------------------------
  WS02001211           JUNCTION     0.61     0.76     5.60     0  02:22        0.76
  WS02001212           JUNCTION     0.34     0.48     5.55     0  02:22        0.48
  WS02001213           JUNCTION     0.57     0.74     5.50     0  02:23        0.74
  WS02003069           JUNCTION     0.39     0.57     5.16     0  02:23        0.57
  WS02003072           JUNCTION     0.46     0.63     5.00     0  02:24        0.63
  WS02003073           JUNCTION     0.27     0.39     4.45     0  02:25        0.39
  WS02003060           JUNCTION     0.35     0.51     5.44     0  02:23        0.51
  WS02003066           JUNCTION     0.21     0.31     5.86     0  02:04        0.31
  WS02003059           JUNCTION     0.63     0.79     5.48     0  02:22        0.79
  WS02003067           JUNCTION     0.53     0.71     6.03     0  02:04        0.71
  WS02004401           JUNCTION     0.63     0.88     6.88     0  02:01        0.88
  WS02004402           JUNCTION     0.66     0.90     6.86     0  02:01        0.90
  WS02004403           JUNCTION     0.68     0.92     6.85     0  02:01        0.92
  WS02004404           JUNCTION     0.76     0.99     6.84     0  02:01        0.99
  WS02004406           JUNCTION     0.76     0.98     6.81     0  02:02        0.98
  WS02004409           JUNCTION     0.44     0.69     6.46     0  02:03        0.69
  WS02004410           JUNCTION     0.46     0.71     6.43     0  02:03        0.71
  WS02004411           JUNCTION     0.48     0.71     6.39     0  02:04        0.71
  WS02004412           JUNCTION     0.49     0.72     6.36     0  02:04        0.72
  WS02004413           JUNCTION     0.65     0.87     6.34     0  02:04        0.87
  WS02004405           JUNCTION     0.75     0.98     6.83     0  02:01        0.98
  WS02006109           JUNCTION     0.70     1.00     7.62     0  01:57        1.00
  WS02006110           JUNCTION     0.70     0.94     7.53     0  01:57        0.94
  WS02006111           JUNCTION     0.20     0.29     7.00     0  01:58        0.29
  WS02006112           JUNCTION     0.79     1.10     6.99     0  02:16        1.10
  WS02006113           JUNCTION     0.30     0.47     7.36     0  01:58        0.47
  WS02006115           JUNCTION     0.52     0.78     6.92     0  02:00        0.78
  WS02006116           JUNCTION     0.60     0.86     6.90     0  02:01        0.86
  WS02006230           JUNCTION     0.65     1.05     7.80     0  01:58        1.05
  WS02006231           JUNCTION     0.42     0.71     7.84     0  01:58        0.71
  WS02006232           JUNCTION     0.54     0.84     7.88     0  01:59        0.84
  WS02006234           JUNCTION     0.45     0.77     7.93     0  01:58        0.77
  WS02006235           JUNCTION     0.47     0.80     7.96     0  02:00        0.80
  WS02006238           JUNCTION     0.49     0.82     7.97     0  02:00        0.82
  WS02006240           JUNCTION     0.36     0.72     8.01     0  02:00        0.72
  WS02006242           JUNCTION     0.39     0.77     8.04     0  02:00        0.77
  WS02006243           JUNCTION     0.25     0.65     8.07     0  02:00        0.65
  WS02006245           JUNCTION     0.21     0.60     8.09     0  02:01        0.60
  WS02006247           JUNCTION     0.21     0.60     8.10     0  02:01        0.60
  WS02006248           JUNCTION     0.17     0.53     8.12     0  02:01        0.53
  WS02006249           JUNCTION     0.20     0.54     8.14     0  02:01        0.54
  WS02006239           JUNCTION     0.44     0.78     7.99     0  02:00        0.78
  WS02006251           JUNCTION     0.18     0.51     8.18     0  02:01        0.51
  WS02006252           JUNCTION     0.14     0.35     8.59     0  01:43        0.35
  WS02006253           JUNCTION     0.21     0.54     8.18     0  02:01        0.54
  WS02006256           JUNCTION     1.07     2.35     9.28     0  00:00        1.21
  WS02004138           JUNCTION     0.13     0.19     7.44     0  02:20        0.19
  WS02004407           JUNCTION     0.20     0.31     6.62     0  02:02        0.31
  WS02006228           JUNCTION     0.70     1.05     7.71     0  01:56        1.05
  WS02006229           JUNCTION     0.67     1.05     7.74     0  01:57        1.05
  WS02006280           JUNCTION     0.08     0.16     8.43     0  01:50        0.16
  WS02006284           JUNCTION     0.38     0.50     8.90     0  01:50        0.50
  WS02006287           JUNCTION     0.12     0.23     9.19     0  01:50        0.23
  WSF200               JUNCTION     0.19     0.32     5.55     0  02:20        0.32
  HS02004901           JUNCTION     0.14     0.24    10.06     0  01:47        0.24
  HS02004881           JUNCTION     0.01     0.03     9.06     0  01:50        0.03
  HS02004876           JUNCTION     0.06     0.11     9.14     0  01:47        0.11
  HS02004870           JUNCTION     0.02     0.05     9.33     0  01:50        0.05
  HS02004862           JUNCTION     0.02     0.05     9.44     0  01:51        0.05
  HS02004856           JUNCTION     0.08     0.11     9.54     0  01:51        0.11
  HS02004852           JUNCTION     0.01     0.03     9.54     0  01:52        0.03
  HS02004848           JUNCTION     0.01     0.03     9.63     0  01:51        0.03
  HS02004842           JUNCTION     0.33     0.36     9.63     0  01:51        0.36
  HS02004837           JUNCTION     0.03     0.05     9.63     0  01:51        0.05
  HS02004830           JUNCTION     0.04     0.07     9.54     0  01:51        0.07
  HS02004824           JUNCTION     0.03     0.05     9.45     0  02:16        0.05
  HS02004817           JUNCTION     0.45     0.54     9.39     0  01:51        0.54
  HS02004807           JUNCTION     0.14     0.22     9.39     0  01:51        0.22
  HS02004802           JUNCTION     0.17     0.25     9.38     0  01:51        0.25
  HS02004799           JUNCTION     0.14     0.28     9.49     0  01:48        0.28
  HS02004792           JUNCTION     0.04     0.11     9.63     0  01:47        0.11
  HS02004788           JUNCTION     0.03     0.08     9.98     0  01:48        0.08
  HS02004785           JUNCTION     0.06     0.14    10.04     0  01:48        0.14
  HS02004777           JUNCTION     0.16     0.26    10.06     0  01:47        0.26
  HS02004770           JUNCTION     0.13     0.23    10.06     0  01:47        0.23
  HS02004480           JUNCTION     0.10     0.21     9.46     0  01:48        0.21
  HS02004479           JUNCTION     0.14     0.25     9.46     0  01:48        0.25
  HS02004478           JUNCTION     0.07     0.14     9.37     0  01:49        0.14
  YS02001745           JUNCTION     0.64     0.88     8.40     0  03:18        0.88
  YS02001748           JUNCTION     1.02     2.13     9.21     0  02:36        1.32
  YS02001751           JUNCTION     1.20     2.20     9.08     0  02:18        1.53
  YS02001754           JUNCTION     1.45     2.12     8.73     0  02:18        1.81
  YS02001762           JUNCTION     1.65     2.03     8.43     0  03:20        2.02
  YS02001765           JUNCTION     1.61     1.98     8.43     0  03:17        1.96
  YS02001767           JUNCTION     1.57     1.93     8.42     0  03:17        1.92
  YS02001770           JUNCTION     1.57     1.94     8.43     0  02:18        1.90
  YS02001774           JUNCTION     1.63     2.00     8.43     0  02:18        1.96
  YS02001779           JUNCTION     1.38     1.68     8.37     0  02:18        1.68
  YS02001882           JUNCTION     0.45     0.77     7.48     0  03:03        0.77
  YS02001884           JUNCTION     0.55     0.86     7.48     0  03:05        0.86
  YS02001759           JUNCTION     1.69     2.07     8.44     0  03:20        2.06
  YS02001887           JUNCTION     0.62     0.94     7.48     0  03:05        0.94
  YS02001890           JUNCTION     0.65     0.97     7.48     0  03:05        0.97
  YS02001898           JUNCTION     0.42     0.73     7.47     0  03:07        0.73
  YS02001901           JUNCTION     0.54     0.86     7.47     0  03:07        0.86
  YS02001904           JUNCTION     0.52     0.84     7.47     0  03:05        0.84
  YS02001907           JUNCTION     0.85     1.17     7.46     0  03:06        1.17
  YS02001910           JUNCTION     0.64     0.96     7.47     0  03:06        0.96
  YS02001915           JUNCTION     0.43     0.75     7.47     0  03:06        0.75
  YS02001918           JUNCTION     0.16     0.41     7.47     0  03:06        0.40
  YS02001619           JUNCTION     1.17     1.61     8.54     0  02:28        1.46
  YS02001629           JUNCTION     1.52     1.85     8.40     0  02:31        1.84
  YS02001641           JUNCTION     1.62     1.98     8.42     0  02:38        1.93
  YS02001644           JUNCTION     1.62     1.92     8.35     0  02:38        1.92
  YS02001652           JUNCTION     1.47     2.16     8.76     0  02:50        1.93
  YS02001655           JUNCTION     1.23     2.20     9.05     0  02:14        1.89
  YS02001920           JUNCTION     0.26     0.47     7.48     0  03:05        0.46
  YS02001923           JUNCTION     0.10     0.21     7.47     0  03:05        0.20
  YS02001926           JUNCTION     0.20     0.26     7.71     0  03:01        0.26
  YS02001929           JUNCTION     0.10     0.14     7.84     0  03:01        0.14
  YS02001658           JUNCTION     0.96     2.30     9.44     0  02:28        1.93
  YS02001661           JUNCTION     0.74     2.46     9.86     0  02:52        1.96
  YS02001664           JUNCTION     0.33     0.57     8.49     0  02:51        0.56
  YS02001622           JUNCTION     1.19     1.62     8.52     0  02:28        1.49
  YS02001633           JUNCTION     1.61     1.99     8.45     0  02:38        1.93
  YS02001649           JUNCTION     1.66     2.05     8.44     0  02:30        2.05
  YS02001757           JUNCTION     1.78     2.17     8.43     0  03:15        2.16
  YS02001895           JUNCTION     0.42     0.72     7.47     0  03:05        0.72
  YS02001625           JUNCTION     1.47     1.78     8.38     0  02:31        1.78
  YS02163301           JUNCTION     1.55     1.91     8.43     0  02:38        1.87
  YS02163601           JUNCTION     1.66     2.06     8.46     0  02:38        1.98
  YS02164001           JUNCTION     1.60     2.00     8.45     0  02:38        1.91
  YS02001647           JUNCTION     1.45     1.80     8.41     0  03:03        1.79
  YSB1154              JUNCTION     0.28     0.40     9.46     0  01:48        0.40
  YSB6556              JUNCTION     0.17     0.29     9.46     0  01:48        0.29
  YSB1174              JUNCTION     0.23     0.35     9.46     0  01:48        0.35
  YSB1171              JUNCTION     0.43     0.55     9.46     0  01:48        0.55
  YS02006553           JUNCTION     0.85     1.17     7.45     0  03:06        1.17
  YS02006561           JUNCTION     0.24     0.56     7.22     0  02:58        0.49
  YS02006556           JUNCTION     0.82     1.15     7.46     0  02:58        1.13
  YS02006558           JUNCTION     0.86     1.20     7.47     0  02:58        1.17
  YS02001783           JUNCTION     0.48     2.05     8.19     0  02:58        1.02
  YS02001784           JUNCTION     0.51     1.79     7.85     0  02:58        1.02
  YS02001786           JUNCTION     0.46     2.05     8.08     0  02:58        0.95
  YS02001788           JUNCTION     0.41     2.28     8.26     0  02:58        0.90
  YS02001790           JUNCTION     0.55     1.96     7.60     0  02:57        1.15
  YS02001791           JUNCTION     0.53     1.69     7.16     0  02:56        1.21
  YS02001793           JUNCTION     0.73     2.01     6.84     0  02:58        1.79
  WS02004139           JUNCTION     0.55     0.71     5.62     0  02:22        0.70
  WSC                  OUTFALL      0.27     0.39     1.06     0  02:25        0.39
  3                    OUTFALL      0.12     0.23     6.23     0  00:00        0.21
  4                    OUTFALL      0.00     0.04     7.04     0  02:01        0.04
  5                    OUTFALL      0.00     0.00     5.00     0  00:00        0.00
  JK-storage           STORAGE      2.82     5.80     6.60     0  02:57        5.80
  CC-storage           STORAGE      0.99     1.39     8.39     0  03:16        1.39
  XR-storage           STORAGE      7.49     7.72     5.72     0  01:56        7.72
  
  
  *******************
  Node Inflow Summary
  *******************
  
  -------------------------------------------------------------------------------------------------
                                  Maximum  Maximum                  Lateral       Total        Flow
                                  Lateral    Total  Time of Max      Inflow      Inflow     Balance
                                   Inflow   Inflow   Occurrence      Volume      Volume       Error
  Node                 Type           LPS      LPS  days hr:min    10^6 ltr    10^6 ltr     Percent
  -------------------------------------------------------------------------------------------------
  WS02001211           JUNCTION      7.35   365.36     0  02:20       0.207        5.48       0.555
  WS02001212           JUNCTION      0.00   351.04     0  02:21           0        5.45       0.290
  WS02001213           JUNCTION      0.00   346.41     0  02:22           0        5.44       0.334
  WS02003069           JUNCTION      0.32   911.13     0  02:23     0.00902        11.5       0.167
  WS02003072           JUNCTION      0.00   910.68     0  02:24           0        11.5       0.222
  WS02003073           JUNCTION      1.82   912.72     0  02:24      0.0514        11.5       0.234
  WS02003060           JUNCTION     16.53   910.18     0  02:22       0.466        11.5       0.160
  WS02003066           JUNCTION      0.00   573.39     0  02:04           0        5.65       0.048
  WS02003059           JUNCTION      0.00   344.37     0  02:22           0        5.42       0.575
  WS02003067           JUNCTION      0.00   573.39     0  02:04           0        5.66       0.110
  WS02004401           JUNCTION      0.00   574.40     0  02:01           0        5.81       0.254
  WS02004402           JUNCTION      0.00   574.27     0  02:01           0         5.8       0.249
  WS02004403           JUNCTION      0.00   574.29     0  02:01           0        5.79       0.234
  WS02004404           JUNCTION      0.16   574.29     0  02:01     0.00457        5.78       0.185
  WS02004406           JUNCTION      0.00   574.40     0  02:01           0        5.75       0.454
  WS02004409           JUNCTION      0.00   574.10     0  02:02           0        5.72       0.142
  WS02004410           JUNCTION      0.00   573.77     0  02:02           0        5.71       0.177
  WS02004411           JUNCTION      0.00   573.55     0  02:02           0         5.7       0.193
  WS02004412           JUNCTION      0.00   573.45     0  02:03           0        5.69       0.227
  WS02004413           JUNCTION      0.00   573.41     0  02:04           0        5.68       0.365
  WS02004405           JUNCTION      0.04   574.25     0  02:01     0.00107        5.77       0.281
  WS02006109           JUNCTION      1.23   566.30     0  01:57      0.0347        5.84       0.290
  WS02006110           JUNCTION      0.00   566.29     0  01:57           0        5.83       0.230
  WS02006111           JUNCTION      0.00   591.11     0  01:58           0        5.81       0.039
  WS02006112           JUNCTION      9.91   579.65     0  01:58       0.054        5.86       0.355
  WS02006113           JUNCTION      0.00   566.68     0  01:57           0        5.81       0.084
  WS02006115           JUNCTION      0.00   578.16     0  01:58           0        5.84       0.205
  WS02006116           JUNCTION      0.00   575.21     0  01:59           0        5.83       0.210
  WS02006230           JUNCTION     10.28   339.55     0  02:50        0.29        4.19       0.252
  WS02006231           JUNCTION      0.00   329.23     0  02:50           0         3.9       0.071
  WS02006232           JUNCTION      0.00   329.23     0  02:50           0        3.91       0.275
  WS02006234           JUNCTION      0.00   329.22     0  02:50           0        3.91       0.049
  WS02006235           JUNCTION      0.00   329.21     0  02:50           0        3.95       0.188
  WS02006238           JUNCTION      0.00   284.47     0  03:00           0        1.21       0.294
  WS02006240           JUNCTION      0.00   271.05     0  03:00           0        1.19       0.266
  WS02006242           JUNCTION      0.00   264.72     0  03:01           0        1.19       0.306
  WS02006243           JUNCTION      0.00   253.72     0  03:01           0        1.18      -0.208
  WS02006245           JUNCTION      0.00   245.74     0  03:01           0        1.18       0.188
  WS02006247           JUNCTION      0.00   245.35     0  01:48           0        1.18       0.011
  WS02006248           JUNCTION      0.00   247.49     0  01:48           0        1.18      -0.045
  WS02006249           JUNCTION      0.00   249.33     0  01:49           0         1.2       0.092
  WS02006239           JUNCTION      0.00   278.04     0  03:00           0         1.2       0.335
  WS02006251           JUNCTION      0.08   250.64     0  01:49     0.00217         1.2      -0.001
  WS02006252           JUNCTION      0.00   200.00     0  01:43           0       0.887       0.007
  WS02006253           JUNCTION      1.33    51.15     0  01:49     0.00698        0.31       0.038
  WS02006256           JUNCTION      0.00   600.00     0  00:00           0        6.73       0.028
  WS02004138           JUNCTION      0.00   379.93     0  02:20           0         5.3       0.072
  WS02004407           JUNCTION      0.00   574.19     0  02:02           0        5.72       0.067
  WS02006228           JUNCTION      0.00   565.10     0  01:58           0        5.82       0.185
  WS02006229           JUNCTION      0.00   565.06     0  01:57           0        5.83       0.149
  WS02006280           JUNCTION      0.00   250.77     0  01:50           0        1.65       0.004
  WS02006284           JUNCTION      0.10   250.79     0  01:50      0.0027        1.65       0.062
  WS02006287           JUNCTION      0.00   250.70     0  01:50           0        1.65       0.044
  WSF200               JUNCTION      0.00   573.41     0  02:04           0        5.65       0.038
  HS02004901           JUNCTION     12.01    12.01     0  01:45      0.0649      0.0651       2.778
  HS02004881           JUNCTION      5.13    49.92     0  01:49      0.0283       0.303       0.039
  HS02004876           JUNCTION      9.09    44.88     0  01:50      0.0545       0.275       0.197
  HS02004870           JUNCTION      9.46    35.90     0  01:50      0.0537       0.221       0.049
  HS02004862           JUNCTION      8.62    26.77     0  01:51      0.0595       0.167       0.103
  HS02004856           JUNCTION      7.08    18.19     0  01:50      0.0404       0.109       1.338
  HS02004852           JUNCTION      0.00    11.37     0  01:51           0      0.0688       0.079
  HS02004848           JUNCTION     19.27    19.27     0  02:15       0.129       0.129       0.035
  HS02004842           JUNCTION      0.00     7.96     0  02:16           0      0.0736      21.473
  HS02004837           JUNCTION     22.22    28.76     0  01:50       0.273       0.333       0.245
  HS02004830           JUNCTION      0.15    28.90     0  01:51     0.00423       0.323       0.383
  HS02004824           JUNCTION     23.98    52.78     0  02:16       0.169       0.492       0.110
  HS02004817           JUNCTION      0.60    53.38     0  02:16      0.0169       0.508       3.394
  HS02004807           JUNCTION     17.56    68.44     0  02:16      0.0987        0.59       0.739
  HS02004802           JUNCTION      0.00    68.45     0  02:16           0       0.587       0.679
  HS02004799           JUNCTION     13.93   155.61     0  01:47      0.0799       0.915       0.288
  HS02004792           JUNCTION     59.81   141.74     0  01:47       0.341       0.835       0.049
  HS02004788           JUNCTION     20.81    82.39     0  01:48       0.158       0.496       0.078
  HS02004785           JUNCTION      0.15    61.69     0  01:47     0.00423       0.339       0.145
  HS02004777           JUNCTION      0.03    61.69     0  01:46    0.000846        0.34       1.552
  HS02004770           JUNCTION     50.05    61.90     0  01:46       0.278       0.341       0.915
  HS02004480           JUNCTION      0.00   184.53     0  01:48           0        1.08       0.105
  HS02004479           JUNCTION      0.00    29.01     0  01:50           0       0.176       0.418
  HS02004478           JUNCTION      0.00   250.67     0  01:49           0        1.65       0.021
  YS02001745           JUNCTION    196.14   349.64     0  02:35        1.98        1.99       0.576
  YS02001748           JUNCTION      0.04   516.73     0  02:36     0.00127        1.98       1.166
  YS02001751           JUNCTION      0.01   431.94     0  02:18     0.00031        1.95       1.187
  YS02001754           JUNCTION      0.26   228.49     0  02:29     0.00733        1.93       1.266
  YS02001762           JUNCTION      0.00   233.90     0  02:52           0        1.62       1.302
  YS02001765           JUNCTION      0.00   233.76     0  02:52           0        1.62       1.496
  YS02001767           JUNCTION      0.54   233.76     0  02:53      0.0151        1.64       2.184
  YS02001770           JUNCTION    237.12   308.18     0  03:22        2.24         2.4       1.308
  YS02001774           JUNCTION      0.00   308.85     0  03:22           0       0.904       2.864
  YS02001779           JUNCTION      0.01   309.28     0  03:22    0.000141       0.866       1.722
  YS02001882           JUNCTION      0.00    26.42     0  03:00           0      0.0157      15.160
  YS02001884           JUNCTION      0.00    55.25     0  03:00           0      0.0502      12.828
  YS02001759           JUNCTION    224.87   454.75     0  02:52        2.06         3.5       0.646
  YS02001887           JUNCTION    272.70   302.48     0  03:00        2.39        2.42       0.334
  YS02001890           JUNCTION      0.00   291.53     0  03:00           0        2.38       0.370
  YS02001898           JUNCTION      0.00   291.53     0  03:01           0        2.36       0.117
  YS02001901           JUNCTION      0.00   274.67     0  03:03           0        2.36       0.275
  YS02001904           JUNCTION      0.00   269.71     0  02:32           0        2.36       0.251
  YS02001907           JUNCTION      0.00   518.58     0  02:58           0        5.21       0.454
  YS02001910           JUNCTION      0.00   269.44     0  03:16           0        2.86       0.396
  YS02001915           JUNCTION    170.88   271.08     0  03:06        1.67        2.86       0.195
  YS02001918           JUNCTION      0.00   111.37     0  03:01           0         1.2       0.142
  YS02001619           JUNCTION    167.73   167.73     0  03:01        1.65        1.65       0.719
  YS02001629           JUNCTION      0.00   217.60     0  02:20           0        1.57       1.798
  YS02001641           JUNCTION      0.00   351.88     0  03:01           0        3.43       0.614
  YS02001644           JUNCTION    187.26   931.93     0  03:19        1.91        8.91       0.291
  YS02001652           JUNCTION      0.00   282.01     0  02:28           0        1.73       1.339
  YS02001655           JUNCTION      0.15   406.24     0  02:14     0.00434        1.75       1.348
  YS02001920           JUNCTION      2.87   125.01     0  03:01      0.0809         1.2       0.227
  YS02001923           JUNCTION      0.04    91.49     0  03:01     0.00106        1.12       0.042
  YS02001926           JUNCTION      0.05    91.60     0  03:01     0.00147        1.12       0.282
  YS02001929           JUNCTION     91.59    91.59     0  03:01        1.12        1.12       0.041
  YS02001658           JUNCTION      0.00   620.35     0  02:28           0        1.81       1.239
  YS02001661           JUNCTION      0.00   594.52     0  02:49           0        2.39      -0.060
  YS02001664           JUNCTION    199.96   374.99     0  02:49        1.78        2.36       0.290
  YS02001622           JUNCTION      0.00   174.73     0  02:20           0        1.64       1.947
  YS02001633           JUNCTION    191.11   351.60     0  02:58        1.96        3.49       0.923
  YS02001649           JUNCTION      0.00   710.08     0  02:46           0        5.93       0.627
  YS02001757           JUNCTION      0.00  1323.70     0  02:47           0        7.62       1.223
  YS02001895           JUNCTION      0.00   292.49     0  03:00           0        2.37       0.200
  YS02001625           JUNCTION      0.00   217.59     0  02:20           0        1.61       2.471
  YS02163301           JUNCTION      0.00   188.55     0  02:27           0        1.56       1.549
  YS02163601           JUNCTION      0.11   351.67     0  02:58      0.0031        3.45       0.875
  YS02164001           JUNCTION      0.00   351.81     0  02:59           0        3.43       0.583
  YS02001647           JUNCTION      0.00   516.08     0  02:47           0        5.18       0.537
  YSB1154              JUNCTION     16.17    16.17     0  01:48       0.097      0.0978       1.500
  YSB6556              JUNCTION      0.00    16.24     0  01:49           0      0.0986       1.284
  YSB1174              JUNCTION     13.15    13.15     0  01:45      0.0704      0.0709       1.845
  YSB1171              JUNCTION      0.00    29.31     0  01:48           0       0.175       3.755
  YS02006553           JUNCTION      0.00   518.48     0  02:58           0         5.2       0.298
  YS02006561           JUNCTION      0.00   761.73     0  02:58           0        7.33       0.007
  YS02006556           JUNCTION      0.00   518.43     0  02:58           0         5.2       0.212
  YS02006558           JUNCTION    242.14   760.48     0  02:58        2.19        7.36       0.070
  YS02001783           JUNCTION      0.00   788.82     0  02:58           0        7.33       0.028
  YS02001784           JUNCTION      1.06   758.76     0  02:57      0.0299        7.36       0.046
  YS02001786           JUNCTION      0.06   758.14     0  02:57     0.00159        7.36       0.042
  YS02001788           JUNCTION      0.07   757.43     0  02:56       0.002        7.36       0.024
  YS02001790           JUNCTION      0.15   765.47     0  02:57     0.00437        7.36       0.029
  YS02001791           JUNCTION      0.00   781.25     0  02:56           0        7.36       0.012
  YS02001793           JUNCTION      0.00   771.17     0  02:54           0        7.36       0.002
  WS02004139           JUNCTION      0.32   378.17     0  02:20     0.00905        5.31       0.595
  WSC                  OUTFALL       0.00   913.07     0  02:25           0        11.5       0.000
  3                    OUTFALL       0.00   597.65     0  00:00           0        3.97       0.000
  4                    OUTFALL       0.00    17.49     0  02:01           0       0.016       0.000
  5                    OUTFALL       0.00     0.00     0  00:00           0           0       0.000 ltr
  JK-storage           STORAGE       0.00   854.12     0  02:55           0        7.51      -5.374
  CC-storage           STORAGE       0.00  1323.52     0  02:47           0        4.85       1.356
  XR-storage           STORAGE     519.52   519.52     0  03:01        8.98        9.58      -0.000
  
  
  **********************
  Node Surcharge Summary
  **********************
  
  Surcharging occurs when water rises above the top of the highest conduit.
  ---------------------------------------------------------------------
                                               Max. Height   Min. Depth
                                   Hours       Above Crown    Below Rim
  Node                 Type      Surcharged         Meters       Meters
  ---------------------------------------------------------------------
  WS02006109           JUNCTION        1.46          0.181        1.639
  WS02006110           JUNCTION        0.66          0.033        1.817
  WS02006112           JUNCTION        1.15          0.105        1.575
  WS02006231           JUNCTION        0.18          0.005        1.525
  WS02006232           JUNCTION        1.17          0.140        1.340
  WS02006234           JUNCTION        0.47          0.050        1.190
  WS02006235           JUNCTION        0.84          0.086        1.204
  WS02006238           JUNCTION        0.90          0.101        1.329
  WS02006240           JUNCTION        0.27          0.010        1.380
  WS02006242           JUNCTION        0.35          0.043        0.777
  WS02006239           JUNCTION        0.37          0.041        1.249
  WS02006256           JUNCTION        0.01          1.050        0.000
  WS02006228           JUNCTION        1.45          0.225        1.975
  YS02001748           JUNCTION        5.13          1.053        0.137
  YS02001751           JUNCTION        5.42          1.200        0.000
  YS02001754           JUNCTION        5.68          1.070        0.080
  YS02001762           JUNCTION        5.94          1.030        0.120
  YS02001765           JUNCTION        5.92          0.975        0.125
  YS02001767           JUNCTION        5.89          0.932        0.098
  YS02001770           JUNCTION        5.82          0.906        0.014
  YS02001774           JUNCTION        5.93          1.004        0.046
  YS02001779           JUNCTION        5.65          0.680        0.000
  YS02001759           JUNCTION        5.97          1.072        0.138
  YS02001907           JUNCTION        1.23          0.164        0.786
  YS02001619           JUNCTION        5.39          0.610        0.000
  YS02001629           JUNCTION        5.42          0.470        0.000
  YS02001641           JUNCTION        5.92          0.983        0.117
  YS02001644           JUNCTION        5.93          0.920        0.000
  YS02001652           JUNCTION        5.70          1.130        0.000
  YS02001655           JUNCTION        5.43          1.200        0.000
  YS02001658           JUNCTION        5.16          1.300        0.000
  YS02001661           JUNCTION        0.19          1.390        0.000
  YS02001622           JUNCTION        5.46          0.620        0.000
  YS02001633           JUNCTION        5.91          0.971        0.089
  YS02001649           JUNCTION        5.94          1.050        0.000
  YS02001757           JUNCTION        6.03          1.174        0.036
  YS02001625           JUNCTION        5.72          0.780        0.000
  YS02163301           JUNCTION        5.88          0.911        0.119
  YS02163601           JUNCTION        5.95          1.062        0.018
  YS02164001           JUNCTION        5.92          0.996        0.104
  YS02001647           JUNCTION        5.71          0.801        0.099
  YS02006553           JUNCTION        1.34          0.170        1.020
  YS02006556           JUNCTION        0.36          0.114        1.236
  YS02006558           JUNCTION        0.28          0.100        1.300
  YS02001783           JUNCTION        0.41          1.250        0.350
  YS02001784           JUNCTION        0.52          0.986        0.504
  YS02001786           JUNCTION        0.42          1.252        0.178
  YS02001788           JUNCTION        0.41          1.480        0.000
  YS02001790           JUNCTION        1.81          1.157        0.000
  YS02001791           JUNCTION        1.93          0.887        1.033
  YS02001793           JUNCTION        2.12          1.007        1.593
  
  
  *********************
  Node Flooding Summary
  *********************
  
  Flooding refers to all water that overflows a node, whether it ponds or not.
  --------------------------------------------------------------------------
                                                             Total   Maximum
                                 Maximum   Time of Max       Flood    Ponded
                        Hours       Rate    Occurrence      Volume     Depth
  Node                 Flooded       LPS   days hr:min    10^6 ltr    Meters
  --------------------------------------------------------------------------
  WS02006256              0.01    406.11      0  00:00       0.001     0.000
  YS02001751              0.01    160.71      0  02:20       0.000     0.000
  YS02001779              2.85    309.07      0  03:22       0.840     0.000
  YS02001619              0.01     27.85      0  02:29       0.000     0.000
  YS02001629              0.01     28.81      0  02:33       0.000     0.000
  YS02001644              5.06    931.83      0  03:19       7.294     0.000
  YS02001652              0.01     10.47      0  02:50       0.000     0.000
  YS02001655              0.01    218.97      0  02:21       0.001     0.000
  YS02001658              0.01    381.63      0  02:30       0.001     0.000
  YS02001661              0.01    127.29      0  02:52       0.000     0.000
  YS02001622              0.01     33.43      0  02:31       0.000     0.000
  YS02001649              0.06     35.36      0  02:55       0.002     0.000
  YS02001625              0.29     22.12      0  02:36       0.004     0.000
  YS02001788              0.01     48.35      0  02:58       0.000     0.000
  YS02001790              0.01    218.22      0  02:57       0.000     0.000
  JK-storage              1.50    701.36      0  03:00       1.208     0.000
  XR-storage              5.88    420.86      0  02:10       3.353     0.000
  
  
  **********************
  Storage Volume Summary
  **********************
  
  --------------------------------------------------------------------------------------------------
                         Average     Avg  Evap Exfil       Maximum     Max    Time of Max    Maximum
                          Volume    Pcnt  Pcnt  Pcnt        Volume    Pcnt     Occurrence    Outflow
  Storage Unit           1000 m3    Full  Loss  Loss       1000 m3    Full    days hr:min        LPS
  --------------------------------------------------------------------------------------------------
  JK-storage               0.142      49     0     0         0.291     100       0  02:57     600.00
  CC-storage               2.765      18     0     0         3.883      25       0  03:16     200.00
  XR-storage               0.898      97     0     0         0.926     100       0  01:56     379.93
  
  
  ***********************
  Outfall Loading Summary
  ***********************
  
  -----------------------------------------------------------
                         Flow       Avg       Max       Total
                         Freq      Flow      Flow      Volume
  Outfall Node           Pcnt       LPS       LPS    10^6 ltr
  -----------------------------------------------------------
  WSC                   99.99    481.67    913.07      11.470
  3                     87.74    262.74    597.65       3.970
  4                     12.48      8.51     17.49       0.016
  5                      0.00      0.00      0.00       0.000
  -----------------------------------------------------------
  System                50.05    752.92   1390.45      15.456
  
  
  ********************
  Link Flow Summary
  ********************
  
  -----------------------------------------------------------------------------
                                 Maximum  Time of Max   Maximum    Max/    Max/
                                  |Flow|   Occurrence   |Veloc|    Full    Full
  Link                 Type          LPS  days hr:min     m/sec    Flow   Depth
  -----------------------------------------------------------------------------
  WS02003066WSF200     CONDUIT    573.41     0  02:04      2.90    0.10    0.24
  WS02006287WS02006284 CONDUIT    250.69     0  01:50      1.73    0.12    0.24
  WS02006284WS02006280 CONDUIT    250.77     0  01:50      1.97    0.11    0.22
  WS02006280WS02006229 CONDUIT    250.77     0  01:50      3.17    0.05    0.16
  WS02006229WS02006228 CONDUIT    565.10     0  01:58      1.12    1.87    1.00
  WS02006256WS02006235 CONDUIT    177.52     0  00:01      2.73    1.88    1.00
  WS02006253WS02006251 CONDUIT     58.60     0  02:17      0.51    0.18    0.74
  WS02006252WS02006251 CONDUIT    200.62     0  01:43      1.97    0.74    0.76
  WS02006251WS02006249 CONDUIT    249.33     0  01:49      0.99    0.72    0.75
  WS02006249WS02006248 CONDUIT    247.49     0  01:48      1.07    1.36    0.75
  WS02006248WS02006247 CONDUIT    245.35     0  01:48      1.03    0.53    0.80
  WS02006247WS02006245 CONDUIT    245.74     0  03:01      0.99    1.95    0.86
  WS02006245WS02006243 CONDUIT    253.72     0  03:01      1.04    0.75    0.89
  WS02006243WS02006242 CONDUIT    264.72     0  03:01      0.84    0.57    0.96
  WS02006242WS02006240 CONDUIT    271.05     0  03:00      0.75    1.08    1.00
  WS02006240WS02006239 CONDUIT    278.04     0  03:00      0.79    0.87    1.00
  WS02006239WS02006238 CONDUIT    284.47     0  03:00      0.76    0.91    1.00
  WS02006238WS02006235 CONDUIT    287.24     0  03:00      1.32    0.64    1.00
  WS02006235WS02006234 CONDUIT    329.22     0  02:50      0.94    3.47    1.00
  WS02006234WS02006232 CONDUIT    329.23     0  02:50      1.17    0.67    1.00
  WS02006232WS02006231 CONDUIT    329.23     0  02:50      0.87    0.69    1.00
  WS02006231WS02006230 CONDUIT    329.27     0  02:50      1.05    4.99    0.98
  WS02006230WS02006229 CONDUIT    339.65     0  02:50      0.88    7.56    1.00
  WS02006228WS02006109 CONDUIT    565.07     0  01:57      1.12    2.47    1.00
  WS02006116WS02004401 CONDUIT    574.40     0  02:01      0.79    0.79    0.87
  WS02006115WS02006116 CONDUIT    575.21     0  01:59      0.87    0.74    0.79
  WS02006113WS02006111 CONDUIT    591.11     0  01:58      2.51    0.71    0.48
  WS02006112WS02006115 CONDUIT    578.16     0  01:58      0.79    0.34    0.89
  WS02006111WS02006112 CONDUIT    571.03     0  01:58      1.57    0.27    0.68
  WS02006110WS02006113 CONDUIT    566.68     0  01:57      1.33    0.52    0.79
  WS02006109WS02006110 CONDUIT    566.29     0  01:57      1.13    1.09    1.00
  WS02004411WS02004412 CONDUIT    573.45     0  02:03      0.95    0.81    0.71
  WS02004401WS02004402 CONDUIT    574.27     0  02:01      0.78    0.69    0.89
  WS02004413WS02003067 CONDUIT    573.39     0  02:04      1.15    0.25    0.61
  WS02004412WS02004413 CONDUIT    573.41     0  02:04      0.86    0.38    0.80
  WS02004410WS02004411 CONDUIT    573.55     0  02:02      0.96    0.78    0.71
  WS02004409WS02004410 CONDUIT    573.77     0  02:02      0.98    0.74    0.70
  WS02004407WS02004409 CONDUIT    574.10     0  02:02      1.48    0.20    0.50
  WS02004406WS02004407 CONDUIT    574.19     0  02:02      1.08    0.26    0.64
  WS02004405WS02004406 CONDUIT    574.40     0  02:01      0.74    1.13    0.98
  WS02004404WS02004405 CONDUIT    574.21     0  02:01      0.73    5.63    0.98
  WS02004403WS02004404 CONDUIT    574.13     0  02:01      0.74    0.41    0.95
  WS02004402WS02004403 CONDUIT    574.29     0  02:01      0.76    0.83    0.91
  WS02004139WS02001211 CONDUIT    358.01     0  02:20      0.69    0.45    0.57
  WS02004138WS02004139 CONDUIT    377.85     0  02:20      2.94    0.08    0.42
  WS02003067WS02003066 CONDUIT    573.39     0  02:04      1.25    0.18    0.42
  WS02001213WS02003059 CONDUIT    344.37     0  02:22      0.64    0.57    0.76
  WS02001212WS02001213 CONDUIT    346.41     0  02:22      1.03    0.53    0.45
  WS02001211WS02001212 CONDUIT    351.04     0  02:21      0.69    0.27    0.62
  WS02003072WS02003073 CONDUIT    910.90     0  02:24      1.71    1.97    0.48
  WS02003069WS02003072 CONDUIT    910.68     0  02:24      1.61    0.44    0.50
  WS02003060WS02003069 CONDUIT    910.81     0  02:23      1.85    0.36    0.45
  WS02003059WS02003060 CONDUIT    345.37     0  02:23      0.67    0.23    0.65
  HS02004901HS02004770 CONDUIT     11.86     0  01:47      0.05    0.04    0.34
  HS02004876HS02004881 CONDUIT     44.96     0  01:50      0.68    0.48    0.09
  HS02004870HS02004876 CONDUIT     35.89     0  01:50      0.47    0.02    0.11
  HS02004842HS02004848 CONDUIT      7.96     0  02:16      0.04    0.00    0.28
  HS02004837HS02004842 CONDUIT      8.06     0  02:20      0.41    0.00    0.30
  HS02004830HS02004837 CONDUIT     28.75     0  01:51      0.48    0.03    0.09
  HS02004824HS02004830 CONDUIT     28.90     0  01:52      0.51    0.04    0.08
  HS02004817HS02004824 CONDUIT     52.78     0  02:16      0.18    0.02    0.42
  HS02004770HS02004777 CONDUIT     61.66     0  01:46      0.25    0.11    0.35
  HS02004799HS02004480 CONDUIT    155.54     0  01:47      0.65    0.20    0.34
  HS02004792HS02004799 CONDUIT    141.71     0  01:47      0.74    0.09    0.27
  HS02004788HS02004792 CONDUIT     82.36     0  01:48      0.88    0.05    0.13
  HS02004785HS02004788 CONDUIT     61.65     0  01:48      0.55    0.46    0.16
  HS02004777HS02004785 CONDUIT     61.54     0  01:47      0.30    0.08    0.29
  HS02004480HS02004478 CONDUIT    184.33     0  01:49      1.04    0.78    0.25
  HS02004479HS02004480 CONDUIT     29.23     0  01:51      0.28    0.03    0.33
  HS02004862HS02004870 CONDUIT     26.75     0  01:51      0.52    0.03    0.07
  HS02004848HS02004852 CONDUIT     11.37     0  01:51      0.35    0.01    0.05
  HS02004856HS02004862 CONDUIT     18.17     0  01:51      0.38    0.02    0.07
  HS02004852HS02004856 CONDUIT     11.35     0  01:52      0.16    0.01    0.10
  HS02004802HS02004478 CONDUIT     68.53     0  02:17      0.36    0.06    0.28
  HS02004478WS02006287 CONDUIT    250.70     0  01:50      1.43    0.07    0.19
  HS02004817HS02004807 CONDUIT     53.46     0  02:17      0.14    0.03    0.54
  HS02004807HS02004802 CONDUIT     68.45     0  02:16      0.30    0.13    0.33
  YS02001759YS02001757 CONDUIT    455.10     0  02:52      0.58    0.32    1.00
  YS02001762YS02001759 CONDUIT    234.11     0  02:52      0.30    0.27    1.00
  YS02001765YS02001762 CONDUIT    233.90     0  02:52      0.30    0.22    1.00
  YS02001770YS02001767 CONDUIT    233.23     0  02:53      0.38    0.92    1.00
  YS02001774YS02001770 CONDUIT    308.85     0  03:22      0.39    0.20    1.00
  YS02001779YS02001774 CONDUIT    309.28     0  03:22      0.39    0.16    1.00
  YS02001649YS02001757 CONDUIT    710.38     0  02:46      0.90    0.43    1.00
  YS02001767YS02001765 CONDUIT    233.76     0  02:52      0.35    0.29    1.00
  YS02006561YS02001783 CONDUIT    788.82     0  02:58      2.15    0.41    0.85
  YS02001783YS02001784 CONDUIT    757.70     0  02:57      1.64    1.04    1.00
  YS02001784YS02001785 CONDUIT    758.08     0  02:57      1.78    1.76    1.00
  YS02001788YS02001790 CONDUIT    765.31     0  02:57      2.32    0.56    1.00
  YS02001790YS02001791 CONDUIT    781.25     0  02:56      2.86    0.85    1.00
  YS02001791YS02001793 CONDUIT    771.17     0  02:54      5.74    0.33    1.00
  YS02001910YS02001907 CONDUIT    265.83     0  03:17      0.49    0.15    0.98
  YS02001786YS02001788 CONDUIT    757.36     0  02:56      2.22    1.46    1.00
  YS02001915YS02001910 CONDUIT    269.44     0  03:16      0.56    0.13    0.86
  YS02001918YS02001915 CONDUIT    111.22     0  03:06      0.44    0.06    0.57
  YS02001923YS02001920 CONDUIT    122.14     0  03:01      0.64    0.05    0.34
  YS02001926YS02001923 CONDUIT     91.45     0  03:01      0.74    0.13    0.21
  YS02001929YS02001926 CONDUIT     91.54     0  03:01      0.81    0.04    0.20
  YS02001920YS02001918 CONDUIT    111.37     0  03:01      0.63    0.11    0.43
  YS02001629YS02163301 CONDUIT    188.55     0  02:27      0.24    0.23    1.00
  YS02001619YS02001622 CONDUIT    174.73     0  02:20      0.65    0.26    1.00
  YS02001622YS02001625 CONDUIT    217.59     0  02:20      0.32    0.12    1.00
  YS02001625YS02001629 CONDUIT    217.60     0  02:20      0.28    0.10    1.00
  YS02163301YS02001633 CONDUIT    188.58     0  02:27      0.24    0.18    1.00
  YS02163601YS02164001 CONDUIT    351.81     0  02:59      0.45    0.31    1.00
  YS02164001YS02001641 CONDUIT    351.88     0  03:01      0.45    0.48    1.00
  YS02001641YS02001644 CONDUIT    351.79     0  03:01      0.45    1.14    1.00
  YS02001647YS02001649 CONDUIT    516.30     0  02:47      0.66    0.27    1.00
  YS02006553YS02006556 CONDUIT    518.43     0  02:58      0.66    0.44    1.00
  YS02006556YS02006558 CONDUIT    518.54     0  02:32      0.66    0.41    1.00
  YSB6556YSB1171       CONDUIT     16.50     0  01:50      0.07    0.02    0.60
  YS02001907YS02006553 CONDUIT    518.48     0  02:58      0.58    0.61    1.00
  YS02006558YS02006561 CONDUIT    761.73     0  02:58      3.15    1.68    0.97
  YS02001633YS02163601 CONDUIT    351.56     0  02:58      0.45    0.37    1.00
  YS02001644YS02001647 CONDUIT    516.08     0  02:47      0.66    0.30    1.00
  YS02001745YS02001748 CONDUIT    516.68     0  02:36      1.51    0.20    0.94
  YS02001748YS02001751 CONDUIT    431.93     0  02:18      1.12    0.22    1.00
  YS02001751YS02001754 CONDUIT    228.23     0  02:29      0.97    0.11    1.00
  YS02001754YS02001757 CONDUIT    228.27     0  02:29      0.33    0.09    1.00
  YS02001882YS02001884 CONDUIT     26.42     0  03:00      0.12    0.03    0.79
  YS02001884YS02001887 CONDUIT     55.25     0  03:00      0.09    0.07    0.88
  YS02001890YS02001895 CONDUIT    292.49     0  03:00      0.44    0.14    0.85
  YS02001895YS02001898 CONDUIT    291.53     0  03:01      0.56    0.51    0.71
  YS02001898YS02001901 CONDUIT    274.67     0  03:03      0.49    0.18    0.80
  YS02001901YS02001904 CONDUIT    269.71     0  02:32      0.44    0.42    0.85
  YS02001904YS02001907 CONDUIT    272.42     0  02:31      0.38    0.10    0.92
  YS02001887YS02001890 CONDUIT    291.53     0  03:00      0.39    0.50    0.93
  YS02001652YS02001649 CONDUIT    282.37     0  02:28      0.58    0.14    1.00
  YS02001655YS02001652 CONDUIT    282.01     0  02:28      1.05    0.14    1.00
  YS02001658YS02001655 CONDUIT    406.08     0  02:14      1.29    0.17    1.00
  YS02001661YS02001658 CONDUIT    620.35     0  02:28      1.59    0.24    1.00
  YS02001664YS02001661 CONDUIT    594.52     0  02:49      1.47    0.19    0.72
  YSB1154YSB6556       CONDUIT     16.24     0  01:49      0.16    0.03    0.49
  YSB1174YSB1171       CONDUIT     13.23     0  01:45      0.06    0.02    0.61
  YSB1171HS02004479    CONDUIT     29.01     0  01:50      0.54    0.02    0.47
  HS02004881HS02006253 CONDUIT     49.92     0  01:50      1.78    0.01    0.16
  YS02001793JiankangQianchi CONDUIT    854.12     0  02:55     16.40    0.07    1.00
  YS02001757CaochengTiaoxuchi CONDUIT   1323.52     0  02:47      2.17    0.58    1.00
  WSF200WS02003060     CONDUIT    573.62     0  02:04      2.10    0.13    0.34
  1                    CONDUIT    913.07     0  02:25      3.25    0.32    0.39
  2                    CONDUIT     17.49     0  02:01      2.92    0.04    0.14
  3                    CONDUIT    597.65     0  00:00     10.05    0.95    0.86
  4                    CONDUIT      0.00     0  00:00      0.00    0.00    0.00
  CC-Pump-1            PUMP       200.00     0  02:30              1.00
  CC-Pump-2            PUMP       200.00     0  01:43              1.00
  JK-Pump-1            PUMP       300.00     0  00:00              1.00
  JK-Pump-2            PUMP       300.00     0  00:00              1.00
  XR-Pump-1            PUMP        95.00     0  00:00              1.00
  XR-Pump-2            PUMP        95.00     0  00:00              1.00
  XR-Pump-3            PUMP        95.00     0  00:30              1.00
  XR-Pump-4            PUMP        95.00     0  03:10              1.00
  
  
  ***************************
  Flow Classification Summary
  ***************************
  
  -------------------------------------------------------------------------------------
                      Adjusted    ---------- Fraction of Time in Flow Class ---------- 
                       /Actual         Up    Down  Sub   Sup   Up    Down  Norm  Inlet 
  Conduit               Length    Dry  Dry   Dry   Crit  Crit  Crit  Crit  Ltd   Ctrl  
  -------------------------------------------------------------------------------------
  WS02003066WSF200        1.00   0.08  0.00  0.00  0.00  0.92  0.00  0.00  0.60  0.00
  WS02006287WS02006284    1.00   0.04  0.01  0.00  0.46  0.49  0.00  0.00  0.70  0.00
  WS02006284WS02006280    1.00   0.05  0.00  0.00  0.00  0.00  0.00  0.95  0.00  0.00
  WS02006280WS02006229    1.00   0.05  0.00  0.00  0.00  0.00  0.00  0.95  0.00  0.00
  WS02006229WS02006228    1.00   0.00  0.00  0.00  0.98  0.00  0.00  0.02  0.00  0.00
  WS02006256WS02006235    1.00   0.00  0.00  0.00  0.99  0.01  0.00  0.00  0.00  0.00
  WS02006253WS02006251    1.00   0.03  0.01  0.00  0.96  0.00  0.00  0.00  0.00  0.00
  WS02006252WS02006251    1.00   0.07  0.07  0.00  0.00  0.00  0.85  0.00  0.00  0.00
  WS02006251WS02006249    1.00   0.00  0.00  0.00  1.00  0.00  0.00  0.00  0.77  0.00
  WS02006249WS02006248    1.00   0.00  0.02  0.00  0.35  0.00  0.63  0.00  0.00  0.00
  WS02006248WS02006247    1.00   0.02  0.00  0.00  0.97  0.00  0.00  0.01  0.66  0.00
  WS02006247WS02006245    1.00   0.02  0.00  0.00  0.96  0.00  0.00  0.02  0.00  0.00
  WS02006245WS02006243    1.00   0.02  0.00  0.00  0.94  0.00  0.00  0.04  0.14  0.00
  WS02006243WS02006242    1.00   0.01  0.01  0.00  0.98  0.00  0.00  0.00  0.17  0.00
  WS02006242WS02006240    1.00   0.01  0.00  0.00  0.99  0.00  0.00  0.00  0.00  0.00
  WS02006240WS02006239    1.00   0.00  0.00  0.00  0.96  0.00  0.00  0.03  0.02  0.00
  WS02006239WS02006238    1.00   0.00  0.00  0.00  1.00  0.00  0.00  0.00  0.00  0.00
  WS02006238WS02006235    1.00   0.00  0.00  0.00  1.00  0.00  0.00  0.00  0.00  0.00
  WS02006235WS02006234    1.00   0.00  0.00  0.00  0.96  0.00  0.04  0.00  0.00  0.00
  WS02006234WS02006232    1.00   0.00  0.00  0.00  1.00  0.00  0.00  0.00  0.00  0.00
  WS02006232WS02006231    1.00   0.00  0.00  0.00  0.99  0.00  0.01  0.00  0.00  0.00
  WS02006231WS02006230    1.00   0.01  0.00  0.00  0.38  0.00  0.61  0.00  0.00  0.00
  WS02006230WS02006229    1.00   0.00  0.00  0.00  0.98  0.00  0.00  0.02  0.01  0.00
  WS02006228WS02006109    1.00   0.00  0.00  0.00  0.99  0.00  0.00  0.00  0.00  0.00
  WS02006116WS02004401    1.00   0.02  0.00  0.00  0.98  0.00  0.00  0.00  0.00  0.00
  WS02006115WS02006116    1.00   0.02  0.00  0.00  0.96  0.00  0.00  0.01  0.01  0.00
  WS02006113WS02006111    1.00   0.02  0.00  0.00  0.00  0.98  0.00  0.00  0.18  0.00
  WS02006112WS02006115    1.00   0.02  0.00  0.00  0.97  0.00  0.00  0.00  0.00  0.00
  WS02006111WS02006112    1.00   0.02  0.00  0.00  0.98  0.00  0.00  0.00  0.98  0.00
  WS02006110WS02006113    1.00   0.02  0.00  0.00  0.98  0.00  0.00  0.00  0.00  0.00
  WS02006109WS02006110    1.00   0.00  0.02  0.00  0.98  0.00  0.00  0.00  0.00  0.00
  WS02004411WS02004412    1.00   0.06  0.00  0.00  0.94  0.00  0.00  0.00  0.00  0.00
  WS02004401WS02004402    1.00   0.02  0.00  0.00  0.98  0.00  0.00  0.00  0.00  0.00
  WS02004413WS02003067    1.00   0.06  0.02  0.00  0.00  0.00  0.93  0.00  0.00  0.00
  WS02004412WS02004413    1.00   0.06  0.00  0.00  0.94  0.00  0.00  0.00  0.00  0.00
  WS02004410WS02004411    1.00   0.06  0.00  0.00  0.94  0.00  0.00  0.00  0.00  0.00
  WS02004409WS02004410    1.00   0.06  0.00  0.00  0.94  0.00  0.00  0.00  0.00  0.00
  WS02004407WS02004409    1.00   0.05  0.00  0.00  0.94  0.01  0.00  0.00  0.81  0.00
  WS02004406WS02004407    1.00   0.00  0.05  0.00  0.95  0.00  0.00  0.00  0.00  0.00
  WS02004405WS02004406    1.00   0.00  0.00  0.00  1.00  0.00  0.00  0.00  0.02  0.00
  WS02004404WS02004405    1.00   0.00  0.00  0.00  1.00  0.00  0.00  0.00  0.00  0.00
  WS02004403WS02004404    1.00   0.00  0.03  0.00  0.97  0.00  0.00  0.00  0.02  0.00
  WS02004402WS02004403    1.00   0.02  0.00  0.00  0.98  0.00  0.00  0.00  0.00  0.00
  WS02004139WS02001211    1.00   0.00  0.00  0.00  0.99  0.00  0.01  0.00  0.00  0.00
  WS02004138WS02004139    1.00   0.00  0.00  0.00  0.98  0.01  0.00  0.00  1.00  0.00
  WS02003067WS02003066    1.00   0.07  0.01  0.00  0.92  0.00  0.00  0.00  0.00  0.00
  WS02001213WS02003059    1.00   0.00  0.01  0.00  0.99  0.00  0.00  0.00  0.00  0.00
  WS02001212WS02001213    1.00   0.01  0.00  0.00  0.39  0.00  0.60  0.00  0.00  0.00
  WS02001211WS02001212    1.00   0.00  0.01  0.00  0.99  0.00  0.00  0.00  0.00  0.00
  WS02003072WS02003073    1.00   0.00  0.00  0.00  0.00  0.00  0.00  1.00  0.00  0.00
  WS02003069WS02003072    1.00   0.00  0.00  0.00  0.99  0.01  0.00  0.00  0.56  0.00
  WS02003060WS02003069    1.00   0.00  0.00  0.00  0.98  0.02  0.00  0.00  0.19  0.00
  WS02003059WS02003060    1.00   0.00  0.00  0.00  0.99  0.01  0.00  0.00  0.01  0.00
  HS02004901HS02004770    1.00   0.04  0.00  0.00  0.96  0.00  0.00  0.00  0.00  0.00
  HS02004876HS02004881    1.00   0.02  0.00  0.00  0.98  0.00  0.00  0.00  0.00  0.00
  HS02004870HS02004876    1.00   0.01  0.00  0.00  0.99  0.00  0.00  0.00  0.95  0.00
  HS02004842HS02004848    1.00   0.00  0.04  0.00  0.96  0.00  0.00  0.00  0.58  0.00
  HS02004837HS02004842    1.00   0.00  0.00  0.00  0.99  0.01  0.00  0.00  0.11  0.00
  HS02004830HS02004837    1.00   0.00  0.00  0.00  1.00  0.00  0.00  0.00  0.99  0.00
  HS02004824HS02004830    1.00   0.00  0.00  0.00  1.00  0.00  0.00  0.00  0.00  0.00
  HS02004817HS02004824    1.00   0.00  0.00  0.00  1.00  0.00  0.00  0.00  1.00  0.00
  HS02004770HS02004777    1.00   0.00  0.04  0.00  0.96  0.00  0.00  0.00  0.03  0.00
  HS02004799HS02004480    1.00   0.00  0.02  0.00  0.95  0.00  0.03  0.00  0.00  0.00
  HS02004792HS02004799    1.00   0.00  0.00  0.00  0.98  0.02  0.00  0.00  0.98  0.00
  HS02004788HS02004792    1.00   0.00  0.00  0.00  0.98  0.02  0.00  0.00  0.98  0.00
  HS02004785HS02004788    1.00   0.00  0.00  0.00  1.00  0.00  0.00  0.00  0.00  0.00
  HS02004777HS02004785    1.00   0.00  0.00  0.00  1.00  0.00  0.00  0.00  0.12  0.00
  HS02004480HS02004478    1.00   0.04  0.00  0.00  0.52  0.00  0.00  0.43  0.00  0.00
  HS02004479HS02004480    1.00   0.02  0.00  0.00  0.98  0.00  0.00  0.00  0.12  0.00
  HS02004862HS02004870    1.00   0.00  0.00  0.00  1.00  0.00  0.00  0.00  0.04  0.00
  HS02004848HS02004852    1.00   0.04  0.00  0.00  0.96  0.00  0.00  0.00  0.77  0.00
  HS02004856HS02004862    1.00   0.00  0.05  0.00  0.95  0.00  0.00  0.00  0.83  0.00
  HS02004852HS02004856    1.00   0.04  0.00  0.00  0.95  0.00  0.00  0.00  0.86  0.00
  HS02004802HS02004478    1.00   0.04  0.00  0.00  0.95  0.00  0.00  0.00  0.03  0.00
  HS02004478WS02006287    1.00   0.05  0.00  0.00  0.60  0.35  0.00  0.00  0.68  0.00
  HS02004817HS02004807    1.00   0.00  0.04  0.00  0.96  0.00  0.00  0.00  0.01  0.00
  HS02004807HS02004802    1.00   0.04  0.00  0.00  0.95  0.00  0.00  0.00  0.00  0.00
  YS02001759YS02001757    1.00   0.00  0.00  0.00  1.00  0.00  0.00  0.00  0.16  0.00
  YS02001762YS02001759    1.00   0.00  0.00  0.00  1.00  0.00  0.00  0.00  0.03  0.00
  YS02001765YS02001762    1.00   0.00  0.00  0.00  1.00  0.00  0.00  0.00  0.14  0.00
  YS02001770YS02001767    1.00   0.00  0.00  0.00  1.00  0.00  0.00  0.00  0.00  0.00
  YS02001774YS02001770    1.00   0.00  0.04  0.00  0.96  0.00  0.00  0.00  0.03  0.00
  YS02001779YS02001774    1.00   0.00  0.00  0.00  1.00  0.00  0.00  0.00  0.18  0.00
  YS02001649YS02001757    1.00   0.00  0.00  0.00  1.00  0.00  0.00  0.00  0.16  0.00
  YS02001767YS02001765    1.00   0.00  0.00  0.00  1.00  0.00  0.00  0.00  0.00  0.00
  YS02006561YS02001783    1.00   0.06  0.00  0.00  0.41  0.54  0.00  0.00  0.61  0.00
  YS02001783YS02001784    1.00   0.00  0.06  0.00  0.94  0.00  0.00  0.00  0.00  0.00
  YS02001784YS02001785    1.00   0.00  0.00  0.00  1.00  0.00  0.00  0.00  0.17  0.00
  YS02001788YS02001790    1.00   0.00  0.00  0.00  0.42  0.58  0.00  0.00  0.53  0.00
  YS02001790YS02001791    1.00   0.00  0.00  0.00  0.39  0.61  0.00  0.00  0.46  0.00
  YS02001791YS02001793    1.00   0.00  0.00  0.00  0.40  0.60  0.00  0.00  0.02  0.00
  YS02001910YS02001907    1.00   0.00  0.00  0.00  0.98  0.00  0.00  0.02  0.12  0.00
  YS02001786YS02001788    1.00   0.00  0.00  0.00  0.40  0.60  0.00  0.00  0.00  0.00
  YS02001915YS02001910    1.00   0.00  0.00  0.00  0.99  0.01  0.00  0.00  0.16  0.00
  YS02001918YS02001915    1.00   0.00  0.01  0.00  0.98  0.01  0.00  0.00  0.60  0.00
  YS02001923YS02001920    1.00   0.00  0.00  0.00  1.00  0.00  0.00  0.00  0.97  0.00
  YS02001926YS02001923    1.00   0.00  0.03  0.00  0.00  0.00  0.97  0.00  0.00  0.00
  YS02001929YS02001926    1.00   0.00  0.04  0.00  0.96  0.00  0.00  0.00  0.87  0.00
  YS02001920YS02001918    1.00   0.00  0.01  0.00  0.99  0.00  0.00  0.00  0.00  0.00
  YS02001629YS02163301    1.00   0.05  0.00  0.00  0.95  0.00  0.00  0.00  0.00  0.00
  YS02001619YS02001622    1.00   0.04  0.00  0.00  0.96  0.00  0.00  0.00  0.00  0.00
  YS02001622YS02001625    1.00   0.04  0.00  0.00  0.96  0.00  0.00  0.00  0.04  0.00
  YS02001625YS02001629    1.00   0.04  0.01  0.00  0.93  0.00  0.02  0.00  0.00  0.00
  YS02163301YS02001633    1.00   0.00  0.05  0.00  0.95  0.00  0.00  0.00  0.00  0.00
  YS02163601YS02164001    1.00   0.00  0.03  0.00  0.97  0.00  0.00  0.00  0.00  0.00
  YS02164001YS02001641    1.00   0.01  0.02  0.00  0.97  0.00  0.00  0.00  0.06  0.00
  YS02001641YS02001644    1.00   0.00  0.01  0.00  0.99  0.00  0.00  0.00  0.00  0.00
  YS02001647YS02001649    1.00   0.00  0.05  0.00  0.95  0.00  0.00  0.00  0.01  0.00
  YS02006553YS02006556    1.00   0.02  0.00  0.00  0.98  0.00  0.00  0.00  0.03  0.00
  YS02006556YS02006558    1.00   0.00  0.01  0.00  0.99  0.00  0.00  0.00  0.00  0.00
  YSB6556YSB1171          1.00   0.03  0.02  0.00  0.96  0.00  0.00  0.00  0.00  0.00
  YS02001907YS02006553    1.00   0.00  0.02  0.00  0.98  0.00  0.00  0.00  0.00  0.00
  YS02006558YS02006561    1.00   0.05  0.00  0.00  0.02  0.92  0.00  0.00  0.53  0.00
  YS02001633YS02163601    1.00   0.00  0.01  0.00  0.99  0.00  0.00  0.00  0.15  0.00
  YS02001644YS02001647    1.00   0.00  0.05  0.00  0.95  0.00  0.00  0.00  0.00  0.00
  YS02001745YS02001748    1.00   0.00  0.00  0.00  0.88  0.01  0.00  0.11  0.05  0.00
  YS02001748YS02001751    1.00   0.00  0.00  0.00  0.97  0.03  0.00  0.00  0.14  0.00
  YS02001751YS02001754    1.00   0.00  0.00  0.00  0.94  0.00  0.00  0.06  0.02  0.00
  YS02001754YS02001757    1.00   0.00  0.00  0.00  0.99  0.01  0.00  0.00  0.18  0.00
  YS02001882YS02001884    1.00   0.05  0.00  0.00  0.95  0.00  0.00  0.00  0.00  0.00
  YS02001884YS02001887    1.00   0.03  0.01  0.00  0.96  0.00  0.00  0.00  0.00  0.00
  YS02001890YS02001895    1.00   0.00  0.05  0.00  0.95  0.00  0.00  0.00  0.00  0.00
  YS02001895YS02001898    1.00   0.05  0.00  0.00  0.94  0.00  0.01  0.00  0.00  0.00
  YS02001898YS02001901    1.00   0.05  0.00  0.00  0.95  0.00  0.00  0.00  0.01  0.00
  YS02001901YS02001904    1.00   0.05  0.00  0.00  0.95  0.00  0.00  0.00  0.00  0.00
  YS02001904YS02001907    1.00   0.00  0.05  0.00  0.95  0.00  0.00  0.00  0.00  0.00
  YS02001887YS02001890    1.00   0.00  0.00  0.00  0.98  0.00  0.02  0.00  0.00  0.00
  YS02001652YS02001649    1.00   0.00  0.00  0.00  1.00  0.00  0.00  0.00  0.16  0.00
  YS02001655YS02001652    1.00   0.00  0.00  0.00  0.94  0.00  0.00  0.06  0.02  0.00
  YS02001658YS02001655    1.00   0.00  0.05  0.00  0.92  0.03  0.00  0.00  0.05  0.00
  YS02001661YS02001658    1.00   0.05  0.00  0.00  0.87  0.08  0.00  0.00  0.05  0.00
  YS02001664YS02001661    1.00   0.04  0.00  0.00  0.81  0.14  0.00  0.00  0.21  0.00
  YSB1154YSB6556          1.00   0.04  0.00  0.00  0.96  0.00  0.00  0.00  0.02  0.00
  YSB1174YSB1171          1.00   0.03  0.01  0.00  0.96  0.00  0.00  0.00  0.00  0.00
  YSB1171HS02004479       1.00   0.02  0.00  0.00  0.97  0.00  0.00  0.00  0.10  0.00
  HS02004881HS02006253    1.00   0.03  0.00  0.00  0.25  0.03  0.00  0.69  0.16  0.00
  YS02001793JiankangQianchi    1.00   0.00  0.00  0.00  0.62  0.38  0.00  0.00  0.15  0.00
  YS02001757CaochengTiaoxuchi    1.00   0.00  0.07  0.00  0.92  0.01  0.00  0.00  0.00  0.00
  WSF200WS02003060        1.00   0.00  0.09  0.00  0.66  0.26  0.00  0.00  0.55  0.00
  1                       1.00   0.00  0.00  0.00  0.00  1.00  0.00  0.00  0.19  0.00
  2                       1.00   0.87  0.00  0.00  0.00  0.13  0.00  0.00  0.01  0.00
  3                       1.00   0.12  0.00  0.00  0.00  0.88  0.00  0.00  0.00  0.00
  4                       1.00   1.00  0.00  0.00  0.00  0.00  0.00  0.00  0.00  0.00
  
  
  *************************
  Conduit Surcharge Summary
  *************************
  
  ----------------------------------------------------------------------------
                                                           Hours        Hours 
                         --------- Hours Full --------   Above Full   Capacity
  Conduit                Both Ends  Upstream  Dnstream   Normal Flow   Limited
  ----------------------------------------------------------------------------
  WS02006229WS02006228        1.45      1.47      1.45      1.66         1.45
  WS02006256WS02006235        6.18      6.18      7.83      5.13         0.01
  WS02006249WS02006248        0.01      0.01      0.01      1.13         0.01
  WS02006247WS02006245        0.01      0.01      0.01      1.30         0.01
  WS02006243WS02006242        0.01      0.01      0.35      0.01         0.01
  WS02006242WS02006240        0.27      0.27      0.71      0.04         0.01
  WS02006240WS02006239        0.31      0.31      0.37      0.01         0.01
  WS02006239WS02006238        0.80      0.80      0.90      0.01         0.01
  WS02006238WS02006235        0.89      0.89      0.97      0.01         0.01
  WS02006235WS02006234        0.46      0.46      0.84      5.87         0.01
  WS02006234WS02006232        0.76      0.76      1.17      0.01         0.01
  WS02006232WS02006231        0.18      0.18      1.17      0.01         0.01
  WS02006231WS02006230        0.01      0.01      0.33      6.26         0.01
  WS02006230WS02006229        1.56      1.59      1.56      6.33         1.56
  WS02006228WS02006109        1.46      1.52      1.46      1.87         1.46
  WS02006112WS02006115        0.01      0.01      1.15      0.01         0.01
  WS02006111WS02006112        0.01      0.01      1.69      0.01         0.01
  WS02006110WS02006113        0.01      0.01      1.49      0.01         0.01
  WS02006109WS02006110        0.66      0.66      1.52      0.68         0.01
  WS02004405WS02004406        0.01      0.01      0.01      0.99         0.01
  WS02004404WS02004405        0.01      0.01      0.01      6.23         0.01
  WS02003072WS02003073        0.01      0.01      0.01      1.81         0.01
  YS02001759YS02001757        5.97      5.97      6.03      0.01         0.01
  YS02001762YS02001759        5.94      5.94      5.97      0.01         0.01
  YS02001765YS02001762        5.92      5.92      5.94      0.01         0.01
  YS02001770YS02001767        5.89      5.89      5.89      0.01         0.73
  YS02001774YS02001770        5.82      5.82      5.93      0.01         0.01
  YS02001779YS02001774        5.65      5.65      5.93      0.01         0.01
  YS02001649YS02001757        5.94      5.94      6.03      0.01         0.01
  YS02001767YS02001765        5.89      5.89      5.92      0.01         0.01
  YS02006561YS02001783        0.01      0.01      0.41      0.01         0.01
  YS02001783YS02001784        0.41      0.41      0.52      0.30         0.09
  YS02001784YS02001785        0.42      0.52      0.42      1.90         0.42
  YS02001788YS02001790        0.41      0.41      1.81      0.01         0.01
  YS02001790YS02001791        1.81      1.81      1.93      0.01         0.01
  YS02001791YS02001793        1.93      1.93      2.19      0.01         0.01
  YS02001910YS02001907        0.01      0.01      1.23      0.01         0.01
  YS02001786YS02001788        0.41      0.42      0.41      1.47         0.40
  YS02001629YS02163301        5.81      5.81      5.88      0.01         0.01
  YS02001619YS02001622        5.39      5.39      5.46      0.01         0.02
  YS02001622YS02001625        5.46      5.46      5.72      0.01         0.01
  YS02001625YS02001629        5.42      5.42      5.72      0.01         0.01
  YS02163301YS02001633        5.88      5.88      5.92      0.01         0.01
  YS02163601YS02164001        5.92      5.92      5.95      0.01         0.01
  YS02164001YS02001641        5.92      5.92      5.92      0.01         0.02
  YS02001641YS02001644        5.92      5.92      5.93      0.72         1.06
  YS02001647YS02001649        5.71      5.71      5.94      0.01         0.01
  YS02006553YS02006556        0.36      0.36      1.34      0.01         0.01
  YS02006556YS02006558        0.99      0.99      1.42      0.01         0.01
  YS02001907YS02006553        1.92      1.92      2.14      0.01         0.01
  YS02006558YS02006561        0.01      0.28      0.01      1.76         0.01
  YS02001633YS02163601        5.91      5.91      5.95      0.01         0.01
  YS02001644YS02001647        5.71      5.71      5.93      0.01         0.01
  YS02001745YS02001748        0.01      0.01      5.13      0.01         0.01
  YS02001748YS02001751        5.20      5.20      5.41      0.01         0.01
  YS02001751YS02001754        5.41      5.41      5.68      0.01         0.01
  YS02001754YS02001757        5.71      5.71      6.03      0.01         0.01
  YS02001904YS02001907        0.01      0.01      1.37      0.01         0.01
  YS02001652YS02001649        5.73      5.73      5.94      0.01         0.01
  YS02001655YS02001652        5.43      5.43      5.70      0.01         0.01
  YS02001658YS02001655        5.16      5.16      5.43      0.01         0.01
  YS02001661YS02001658        0.17      0.17      5.16      0.01         0.01
  YS02001664YS02001661        0.01      0.01      1.04      0.01         0.01
  YS02001793JiankangQianchi        2.12      2.12      3.22      0.01         0.01
  YS02001757CaochengTiaoxuchi        5.08      5.08      6.03      0.01         0.01
  3                           0.01      0.01      0.01      0.01         0.01
  
  
  ***************
  Pumping Summary
  ***************
  
  ---------------------------------------------------------------------------------------------------------
                                                  Min       Avg       Max     Total     Power    % Time Off
                        Percent   Number of      Flow      Flow      Flow    Volume     Usage    Pump Curve
  Pump                 Utilized   Start-Ups       LPS       LPS       LPS  10^6 ltr     Kw-hr    Low   High
  ---------------------------------------------------------------------------------------------------------
  CC-Pump-1               10.64           1      0.00    163.01    200.00     0.480      0.78    0.0    0.0
  CC-Pump-2                8.78           1      0.00    165.71    200.00     0.407      1.63    0.0   84.2
  JK-Pump-1              100.00           1      0.00    252.78    300.00     5.259     60.20    0.0    0.0
  JK-Pump-2               38.30           1      0.00    243.33    300.00     1.466     25.70    0.0    0.0
  XR-Pump-1               38.30           2      0.00     81.42     95.00     0.941      8.23    0.0    0.0
  XR-Pump-2               19.15           2      0.00     81.49     95.00     0.428      2.98    0.0    0.0
  XR-Pump-3               89.35           3      0.00     86.20     95.00     2.251     13.14    0.0    0.0
  XR-Pump-4               65.95           2      0.00     87.75     95.00     1.681      7.63    0.0    0.0
  

  Analysis begun on:  Fri Dec 31 22:19:53 2021
  Analysis ended on:  Fri Dec 31 22:19:55 2021
  Total elapsed time: 00:00:02