
  EPA STORM WATER MANAGEMENT MODEL - VERSION 5.1 (Build 5.3.0.dev0)
  --------------------------------------------------------------

  WARNING 04: minimum elevation drop used for Conduit WS02004404WS02004405
  WARNING 03: negative offset ignored for Link YS02001904YS02001907
  
  *********************************************************
  NOTE: The summary statistics displayed in this report are
  based on results found at every computational time step,  
  not just on results from each reporting time step.
  *********************************************************
  
  ****************
  Analysis Options
  ****************
  Flow Units ............... LPS
  Process Models:
    Rainfall/Runoff ........ YES
    RDII ................... NO
    Snowmelt ............... NO
    Groundwater ............ NO
    Flow Routing ........... YES
    Ponding Allowed ........ NO
    Water Quality .......... NO
  Infiltration Method ...... HORTON
  Flow Routing Method ...... DYNWAVE
  Surcharge Method ......... EXTRAN
  Starting Date ............ 08/28/2015 08:00:00
  Ending Date .............. 08/28/2015 15:50:00
  Antecedent Dry Days ...... 8.0
  Report Time Step ......... 00:01:00
  Wet Time Step ............ 00:01:00
  Dry Time Step ............ 00:01:00
  Routing Time Step ........ 5.00 sec
  Variable Time Step ....... YES
  Maximum Trials ........... 8
  Number of Threads ........ 4
  Head Tolerance ........... 0.001500 m
  
  
  **************************        Volume         Depth
  Runoff Quantity Continuity     hectare-m            mm
  **************************     ---------       -------
  Total Precipitation ......         1.348         2.951
  Evaporation Loss .........         0.000         0.000
  Infiltration Loss ........         0.325         0.712
  Surface Runoff ...........         0.315         0.689
  Final Storage ............         0.708         1.551
  Continuity Error (%) .....        -0.014
  
  
  **************************        Volume        Volume
  Flow Routing Continuity        hectare-m      10^6 ltr
  **************************     ---------     ---------
  Dry Weather Inflow .......         0.616         6.165
  Wet Weather Inflow .......         0.314         3.143
  Groundwater Inflow .......         0.000         0.000
  RDII Inflow ..............         0.000         0.000
  External Inflow ..........         0.102         1.024
  External Outflow .........         1.052        10.524
  Flooding Loss ............         0.000         0.000
  Evaporation Loss .........         0.000         0.000
  Exfiltration Loss ........         0.000         0.000
  Initial Stored Volume ....         0.076         0.761
  Final Stored Volume ......         0.111         1.114
  Continuity Error (%) .....        -4.925
  
  
  *************************
  Highest Continuity Errors
  *************************
  Node HS02004842 (48.81%)
  Node JK-storage (-42.47%)
  Node YS02001884 (41.24%)
  Node YS02001774 (25.49%)
  Node YSB1171 (16.84%)
  
  
  ***************************
  Time-Step Critical Elements
  ***************************
  Link WS02006252WS02006251 (81.43%)
  Link 3 (7.35%)
  Link WS02006280WS02006229 (4.84%)
  
  
  ********************************
  Highest Flow Instability Indexes
  ********************************
  Link WS02006113WS02006111 (61)
  Link WS02006111WS02006112 (11)
  Link YS02001754YS02001757 (4)
  Link YS02001751YS02001754 (3)
  Link YS02001762YS02001759 (3)
  
  
  *************************
  Routing Time Step Summary
  *************************
  Minimum Time Step           :     0.35 sec
  Average Time Step           :     1.38 sec
  Maximum Time Step           :     5.00 sec
  Percent in Steady State     :    -0.00
  Average Iterations per Step :     2.00
  Percent Not Converging      :     0.00
  
  
  ***************************
  Subcatchment Runoff Summary
  ***************************
  
  ------------------------------------------------------------------------------------------------------------------------------
                            Total      Total      Total      Total     Imperv       Perv      Total       Total     Peak  Runoff
                           Precip      Runon       Evap      Infil     Runoff     Runoff     Runoff      Runoff   Runoff   Coeff
  Subcatchment                 mm         mm         mm         mm         mm         mm         mm    10^6 ltr      LPS
  ------------------------------------------------------------------------------------------------------------------------------
  sub0                       2.95       0.00       0.00       0.21       1.48       0.00       1.48        0.00     0.33   0.501
  sub1                       2.95       0.00       0.00       0.32       1.38       0.00       1.38        0.01     1.78   0.466
  sub2                       2.95       0.00       0.00       1.09       0.96       0.00       0.96        0.01     1.58   0.325
  sub3                       2.95       0.00       0.00       1.09       0.93       0.00       0.93        0.02     3.24   0.316
  sub4                       2.95       0.00       0.00       0.32       1.27       0.00       1.27        0.03     3.63   0.430
  sub5                       2.95       0.00       0.00       0.21       1.44       0.00       1.44        0.02     3.16   0.487
  sub7                       2.95       0.00       0.00       0.27       1.43       0.00       1.43        0.00     1.11   0.485
  sub8                       2.95       0.00       0.00       0.27       1.42       0.00       1.42        0.01     1.96   0.483
  sub9                       2.95       0.00       0.00       0.27       1.42       0.00       1.42        0.01     1.45   0.482
  sub10                      2.95       0.00       0.00       0.24       1.43       0.00       1.43        0.02     3.15   0.484
  sub11                      2.95       0.00       0.00       0.24       1.44       0.00       1.44        0.02     3.68   0.489
  sub12                      2.95       0.00       0.00       0.38       1.38       0.00       1.38        0.01     3.10   0.467
  sub14                      2.95       0.00       0.00       0.27       1.42       0.00       1.42        0.01     2.84   0.481
  sub15                      2.95       0.00       0.00       0.89       1.09       0.00       1.09        0.02     3.86   0.369
  sub16                      2.95       0.00       0.00       0.97       1.06       0.00       1.06        0.01     2.73   0.359
  sub17                      2.95       0.00       0.00       0.94       1.07       0.00       1.07        0.01     2.21   0.364
  sub22                      2.95       0.00       0.00       1.27       0.89       0.00       0.89        0.06    12.59   0.303
  sub23                      2.95       0.00       0.00       1.09       0.99       0.00       0.99        0.05    10.72   0.336
  sub60                      2.95       0.00       0.00       0.35       0.73       0.00       0.73        0.22    17.11   0.247
  sub61                      2.95       0.00       0.00       0.50       0.83       0.00       0.83        0.26    22.34   0.282
  sub62                      2.95       0.00       0.00       0.24       0.88       0.00       0.88        0.27    22.61   0.297
  sub63                      2.95       0.00       0.00       0.86       0.76       0.00       0.76        0.23    21.07   0.257
  sub64                      2.95       0.00       0.00       0.44       0.69       0.00       0.69        0.21    16.20   0.235
  sub65                      2.95       0.00       0.00       0.38       0.70       0.00       0.70        0.22    16.38   0.237
  sub66                      2.95       0.00       0.00       0.86       0.62       0.00       0.62        0.19    15.06   0.209
  sub67                      2.95       0.00       0.00       0.24       1.02       0.00       1.02        0.32    29.75   0.346
  sub68                      2.95       0.00       0.00       0.41       0.90       0.00       0.90        0.28    24.88   0.305
  sub69                      2.95       0.00       0.00       0.44       1.04       0.00       1.04        0.24    25.12   0.351
  sub70                      2.95       1.06       0.00       1.36       1.08       0.00       1.08        0.25    16.72   0.268
  sub71                      2.95       0.00       0.00       0.24       0.82       0.00       0.82        0.19    15.56   0.277
  sub72                      2.95       0.00       0.00       0.21       0.51       0.00       0.51        0.10     6.79   0.172
  sub73                      2.95       1.05       0.00       1.36       0.99       0.00       0.99        0.23    14.44   0.247
  sub74                      2.95       0.00       0.00       2.21       0.32       0.00       0.32        0.13    14.08   0.108
  
  
  ******************
  Node Depth Summary
  ******************
  
  ---------------------------------------------------------------------------------
                                 Average  Maximum  Maximum  Time of Max    Reported
                                   Depth    Depth      HGL   Occurrence   Max Depth
  Node                 Type       Meters   Meters   Meters  days hr:min      Meters
  ---------------------------------------------------------------------------------
  WS02001211           JUNCTION     0.64     0.69     5.53     0  04:49        0.69
  WS02001212           JUNCTION     0.36     0.40     5.47     0  04:48        0.40
  WS02001213           JUNCTION     0.56     0.63     5.39     0  04:48        0.63
  WS02003069           JUNCTION     0.35     0.43     5.01     0  04:23        0.43
  WS02003072           JUNCTION     0.42     0.50     4.87     0  04:23        0.50
  WS02003073           JUNCTION     0.25     0.30     4.36     0  04:24        0.30
  WS02003060           JUNCTION     0.32     0.38     5.31     0  04:22        0.38
  WS02003066           JUNCTION     0.17     0.23     5.79     0  04:15        0.23
  WS02003059           JUNCTION     0.62     0.68     5.37     0  04:22        0.68
  WS02003067           JUNCTION     0.45     0.58     5.90     0  04:15        0.58
  WS02004401           JUNCTION     0.51     0.66     6.66     0  04:11        0.66
  WS02004402           JUNCTION     0.54     0.69     6.65     0  04:12        0.69
  WS02004403           JUNCTION     0.57     0.72     6.65     0  04:12        0.72
  WS02004404           JUNCTION     0.65     0.80     6.65     0  04:12        0.80
  WS02004406           JUNCTION     0.66     0.81     6.64     0  04:12        0.81
  WS02004409           JUNCTION     0.32     0.47     6.24     0  04:13        0.47
  WS02004410           JUNCTION     0.35     0.49     6.21     0  04:14        0.49
  WS02004411           JUNCTION     0.37     0.51     6.19     0  04:14        0.51
  WS02004412           JUNCTION     0.40     0.53     6.17     0  04:15        0.53
  WS02004413           JUNCTION     0.55     0.70     6.17     0  04:15        0.70
  WS02004405           JUNCTION     0.64     0.79     6.64     0  04:12        0.79
  WS02006109           JUNCTION     0.56     0.74     7.36     0  04:09        0.74
  WS02006110           JUNCTION     0.58     0.75     7.33     0  04:09        0.74
  WS02006111           JUNCTION     0.15     0.22     6.93     0  04:09        0.22
  WS02006112           JUNCTION     0.65     0.82     6.71     0  04:10        0.82
  WS02006113           JUNCTION     0.22     0.34     7.23     0  04:09        0.34
  WS02006115           JUNCTION     0.39     0.54     6.68     0  04:11        0.54
  WS02006116           JUNCTION     0.48     0.63     6.67     0  04:11        0.63
  WS02006230           JUNCTION     0.47     0.69     7.44     0  04:08        0.69
  WS02006231           JUNCTION     0.31     0.47     7.59     0  04:08        0.47
  WS02006232           JUNCTION     0.43     0.62     7.66     0  04:08        0.62
  WS02006234           JUNCTION     0.32     0.53     7.69     0  04:07        0.53
  WS02006235           JUNCTION     0.35     0.56     7.72     0  04:07        0.56
  WS02006238           JUNCTION     0.37     0.59     7.73     0  04:07        0.58
  WS02006240           JUNCTION     0.25     0.47     7.77     0  04:07        0.47
  WS02006242           JUNCTION     0.30     0.53     7.80     0  04:06        0.53
  WS02006243           JUNCTION     0.18     0.40     7.82     0  04:06        0.40
  WS02006245           JUNCTION     0.19     0.39     7.87     0  04:06        0.39
  WS02006247           JUNCTION     0.21     0.41     7.91     0  04:05        0.41
  WS02006248           JUNCTION     0.17     0.36     7.95     0  04:05        0.36
  WS02006249           JUNCTION     0.21     0.40     8.00     0  04:05        0.40
  WS02006239           JUNCTION     0.31     0.54     7.75     0  04:07        0.54
  WS02006251           JUNCTION     0.20     0.39     8.06     0  04:05        0.39
  WS02006252           JUNCTION     0.19     0.35     8.59     0  04:00        0.35
  WS02006253           JUNCTION     0.22     0.42     8.06     0  04:05        0.42
  WS02006256           JUNCTION     0.73     1.15     8.09     0  00:00        1.10
  WS02004138           JUNCTION     0.15     0.17     7.42     0  01:20        0.17
  WS02004407           JUNCTION     0.15     0.22     6.53     0  04:12        0.22
  WS02006228           JUNCTION     0.54     0.73     7.38     0  04:09        0.73
  WS02006229           JUNCTION     0.50     0.70     7.40     0  04:08        0.70
  WS02006280           JUNCTION     0.04     0.08     8.35     0  02:36        0.08
  WS02006284           JUNCTION     0.32     0.39     8.79     0  02:36        0.39
  WS02006287           JUNCTION     0.06     0.11     9.07     0  02:36        0.11
  WSF200               JUNCTION     0.14     0.21     5.44     0  04:15        0.21
  HS02004901           JUNCTION     0.09     0.15     9.97     0  02:35        0.15
  HS02004881           JUNCTION     0.00     0.01     9.04     0  02:34        0.01
  HS02004876           JUNCTION     0.02     0.06     9.09     0  02:35        0.06
  HS02004870           JUNCTION     0.01     0.02     9.30     0  02:33        0.02
  HS02004862           JUNCTION     0.01     0.02     9.40     0  02:36        0.02
  HS02004856           JUNCTION     0.07     0.08     9.51     0  02:34        0.08
  HS02004852           JUNCTION     0.00     0.01     9.52     0  02:36        0.01
  HS02004848           JUNCTION     0.00     0.01     9.61     0  02:30        0.01
  HS02004842           JUNCTION     0.32     0.34     9.61     0  02:31        0.34
  HS02004837           JUNCTION     0.02     0.03     9.61     0  02:30        0.03
  HS02004830           JUNCTION     0.03     0.04     9.51     0  02:31        0.04
  HS02004824           JUNCTION     0.01     0.02     9.42     0  02:35        0.02
  HS02004817           JUNCTION     0.40     0.45     9.30     0  02:36        0.45
  HS02004807           JUNCTION     0.10     0.13     9.30     0  02:36        0.13
  HS02004802           JUNCTION     0.13     0.17     9.30     0  02:36        0.17
  HS02004799           JUNCTION     0.08     0.14     9.35     0  02:34        0.14
  HS02004792           JUNCTION     0.01     0.04     9.56     0  02:33        0.04
  HS02004788           JUNCTION     0.01     0.03     9.93     0  02:35        0.03
  HS02004785           JUNCTION     0.02     0.06     9.96     0  02:36        0.06
  HS02004777           JUNCTION     0.11     0.17     9.97     0  02:35        0.17
  HS02004770           JUNCTION     0.08     0.14     9.97     0  02:35        0.14
  HS02004480           JUNCTION     0.05     0.10     9.34     0  02:35        0.10
  HS02004479           JUNCTION     0.08     0.14     9.34     0  02:34        0.14
  HS02004478           JUNCTION     0.04     0.07     9.29     0  02:36        0.07
  YS02001745           JUNCTION     0.04     0.06     7.57     0  03:01        0.06
  YS02001748           JUNCTION     0.05     0.07     7.14     0  03:01        0.07
  YS02001751           JUNCTION     0.13     0.18     7.06     0  03:22        0.18
  YS02001754           JUNCTION     0.36     0.47     7.07     0  04:04        0.46
  YS02001762           JUNCTION     0.55     0.66     7.06     0  03:14        0.66
  YS02001765           JUNCTION     0.50     0.61     7.06     0  03:14        0.61
  YS02001767           JUNCTION     0.47     0.58     7.06     0  03:13        0.57
  YS02001770           JUNCTION     0.47     0.57     7.06     0  03:14        0.57
  YS02001774           JUNCTION     0.53     0.64     7.06     0  03:14        0.64
  YS02001779           JUNCTION     0.29     0.38     7.06     0  03:14        0.38
  YS02001882           JUNCTION     0.17     0.24     6.95     0  03:03        0.24
  YS02001884           JUNCTION     0.26     0.33     6.95     0  03:03        0.33
  YS02001759           JUNCTION     0.58     0.70     7.06     0  03:14        0.70
  YS02001887           JUNCTION     0.33     0.41     6.95     0  03:03        0.41
  YS02001890           JUNCTION     0.36     0.45     6.95     0  03:03        0.45
  YS02001898           JUNCTION     0.14     0.20     6.94     0  03:03        0.20
  YS02001901           JUNCTION     0.26     0.33     6.94     0  03:04        0.33
  YS02001904           JUNCTION     0.24     0.31     6.94     0  03:04        0.31
  YS02001907           JUNCTION     0.56     0.65     6.94     0  03:03        0.65
  YS02001910           JUNCTION     0.35     0.43     6.94     0  03:03        0.43
  YS02001915           JUNCTION     0.16     0.22     6.94     0  03:04        0.22
  YS02001918           JUNCTION     0.05     0.05     7.12     0  03:06        0.05
  YS02001619           JUNCTION     0.09     0.14     7.07     0  03:09        0.14
  YS02001629           JUNCTION     0.42     0.51     7.06     0  03:08        0.51
  YS02001641           JUNCTION     0.52     0.62     7.06     0  03:17        0.62
  YS02001644           JUNCTION     0.52     0.63     7.06     0  03:17        0.63
  YS02001652           JUNCTION     0.37     0.47     7.06     0  03:35        0.46
  YS02001655           JUNCTION     0.15     0.21     7.06     0  03:12        0.21
  YS02001920           JUNCTION     0.12     0.13     7.14     0  03:05        0.13
  YS02001923           JUNCTION     0.03     0.04     7.30     0  03:04        0.04
  YS02001926           JUNCTION     0.08     0.10     7.54     0  03:03        0.10
  YS02001929           JUNCTION     0.03     0.04     7.74     0  03:01        0.04
  YS02001658           JUNCTION     0.04     0.07     7.21     0  03:01        0.07
  YS02001661           JUNCTION     0.11     0.13     7.54     0  03:01        0.13
  YS02001664           JUNCTION     0.04     0.06     7.98     0  03:01        0.06
  YS02001622           JUNCTION     0.11     0.16     7.07     0  03:09        0.16
  YS02001633           JUNCTION     0.50     0.61     7.06     0  03:10        0.61
  YS02001649           JUNCTION     0.56     0.67     7.06     0  03:14        0.67
  YS02001757           JUNCTION     0.68     0.80     7.06     0  03:13        0.80
  YS02001895           JUNCTION     0.14     0.20     6.95     0  03:03        0.20
  YS02001625           JUNCTION     0.38     0.46     7.07     0  03:09        0.46
  YS02163301           JUNCTION     0.44     0.55     7.06     0  03:18        0.55
  YS02163601           JUNCTION     0.56     0.66     7.06     0  03:09        0.66
  YS02164001           JUNCTION     0.50     0.60     7.06     0  03:18        0.60
  YS02001647           JUNCTION     0.36     0.45     7.06     0  03:15        0.45
  YSB1154              JUNCTION     0.21     0.28     9.34     0  02:35        0.28
  YSB6556              JUNCTION     0.11     0.17     9.34     0  02:34        0.17
  YSB1174              JUNCTION     0.17     0.23     9.34     0  02:35        0.23
  YSB1171              JUNCTION     0.36     0.44     9.34     0  02:34        0.44
  YS02006553           JUNCTION     0.56     0.65     6.94     0  03:04        0.65
  YS02006561           JUNCTION     0.07     0.11     6.77     0  03:04        0.11
  YS02006556           JUNCTION     0.54     0.63     6.94     0  03:04        0.63
  YS02006558           JUNCTION     0.58     0.67     6.94     0  03:04        0.67
  YS02001783           JUNCTION     0.12     0.18     6.33     0  03:04        0.18
  YS02001784           JUNCTION     0.16     0.22     6.29     0  03:05        0.22
  YS02001786           JUNCTION     0.13     0.19     6.22     0  03:05        0.19
  YS02001788           JUNCTION     0.09     0.13     6.11     0  03:05        0.13
  YS02001790           JUNCTION     0.11     0.16     5.81     0  03:06        0.16
  YS02001791           JUNCTION     0.07     0.11     5.58     0  03:06        0.11
  YS02001793           JUNCTION     0.05     0.07     4.90     0  03:06        0.07
  WS02004139           JUNCTION     0.58     0.64     5.55     0  04:50        0.64
  WSC                  OUTFALL      0.25     0.30     0.97     0  04:24        0.30
  3                    OUTFALL      0.01     0.13     6.13     0  00:00        0.10
  4                    OUTFALL      0.00     0.00     7.00     0  00:00        0.00
  5                    OUTFALL      0.00     0.00     5.00     0  00:00        0.00
  JK-storage           STORAGE      0.07     3.00     3.80     0  00:00        2.70
  CC-storage           STORAGE      0.00     0.02     7.02     0  03:54        0.02
  XR-storage           STORAGE      1.97     5.67     3.67     0  00:15        5.67
  
  
  *******************
  Node Inflow Summary
  *******************
  
  -------------------------------------------------------------------------------------------------
                                  Maximum  Maximum                  Lateral       Total        Flow
                                  Lateral    Total  Time of Max      Inflow      Inflow     Balance
                                   Inflow   Inflow   Occurrence      Volume      Volume       Error
  Node                 Type           LPS      LPS  days hr:min    10^6 ltr    10^6 ltr     Percent
  -------------------------------------------------------------------------------------------------
  WS02001211           JUNCTION      7.35   293.10     0  04:55       0.207        6.82       0.468
  WS02001212           JUNCTION      0.00   293.61     0  04:55           0        6.79       0.240
  WS02001213           JUNCTION      0.00   294.17     0  04:55           0        6.77       0.265
  WS02003069           JUNCTION      0.32   545.11     0  04:22     0.00902        10.4       0.180
  WS02003072           JUNCTION      0.00   544.81     0  04:23           0        10.4       0.241
  WS02003073           JUNCTION      1.82   546.38     0  04:24      0.0514        10.4       0.256
  WS02003060           JUNCTION     16.53   544.96     0  04:22       0.466        10.4       0.176
  WS02003066           JUNCTION      0.00   285.03     0  04:15           0        3.24       0.081
  WS02003059           JUNCTION      0.00   295.22     0  04:54           0        6.76       0.492
  WS02003067           JUNCTION      0.00   285.05     0  04:15           0        3.25       0.193
  WS02004401           JUNCTION      0.00   303.92     0  04:10           0         3.4       0.438
  WS02004402           JUNCTION      0.00   301.32     0  04:11           0        3.39       0.429
  WS02004403           JUNCTION      0.00   299.48     0  04:11           0        3.37       0.405
  WS02004404           JUNCTION      0.16   298.25     0  04:11     0.00457        3.37       0.321
  WS02004406           JUNCTION      0.00   296.70     0  04:12           0        3.34       0.793
  WS02004409           JUNCTION      0.00   295.87     0  04:12           0        3.31       0.249
  WS02004410           JUNCTION      0.00   293.31     0  04:13           0         3.3       0.305
  WS02004411           JUNCTION      0.00   290.59     0  04:13           0        3.29       0.334
  WS02004412           JUNCTION      0.00   288.28     0  04:14           0        3.28       0.391
  WS02004413           JUNCTION      0.00   286.14     0  04:14           0        3.27       0.626
  WS02004405           JUNCTION      0.04   297.53     0  04:11     0.00107        3.36       0.482
  WS02006109           JUNCTION      1.23   314.73     0  04:08      0.0347        3.48       0.453
  WS02006110           JUNCTION      0.00   314.53     0  04:09           0        3.46       0.388
  WS02006111           JUNCTION      0.00   317.96     0  04:09           0        3.44       0.071
  WS02006112           JUNCTION      2.21   314.05     0  04:09     0.00921        3.45       0.636
  WS02006113           JUNCTION      0.00   314.18     0  04:09           0        3.45       0.141
  WS02006115           JUNCTION      0.00   311.06     0  04:10           0        3.43       0.343
  WS02006116           JUNCTION      0.00   307.08     0  04:10           0        3.42       0.345
  WS02006230           JUNCTION     10.28   297.04     0  04:08        0.29        3.02       0.270
  WS02006231           JUNCTION      0.00   287.22     0  04:08           0        2.74       0.247
  WS02006232           JUNCTION      0.00   287.50     0  04:07           0        2.75       0.392
  WS02006234           JUNCTION      0.00   288.05     0  04:07           0        2.75       0.104
  WS02006235           JUNCTION      0.00   288.41     0  04:07           0        2.79       0.238
  WS02006238           JUNCTION      0.00   190.52     0  04:07           0        1.38       0.272
  WS02006240           JUNCTION      0.00   193.10     0  04:06           0        1.36       0.301
  WS02006242           JUNCTION      0.00   195.32     0  04:06           0        1.35       0.410
  WS02006243           JUNCTION      0.00   198.03     0  04:06           0        1.35       0.053
  WS02006245           JUNCTION      0.00   199.12     0  04:05           0        1.35       0.300
  WS02006247           JUNCTION      0.00   199.89     0  04:05           0        1.35       0.187
  WS02006248           JUNCTION      0.00   200.61     0  04:05           0        1.35      -0.053
  WS02006249           JUNCTION      0.00   201.28     0  04:04           0        1.36       0.491
  WS02006239           JUNCTION      0.00   191.49     0  04:07           0        1.37       0.350
  WS02006251           JUNCTION      0.08   202.18     0  04:03     0.00217        1.37       0.208
  WS02006252           JUNCTION      0.00   200.00     0  04:00           0        1.31       0.015
  WS02006253           JUNCTION      0.33    16.67     0  04:06      0.0012      0.0599       2.189
  WS02006256           JUNCTION      0.00   300.00     0  00:00           0        1.57       0.153
  WS02004138           JUNCTION      0.00   285.00     0  01:20           0        6.64       0.048
  WS02004407           JUNCTION      0.00   296.13     0  04:12           0        3.31       0.120
  WS02006228           JUNCTION      0.00   313.69     0  04:08           0        3.45       0.297
  WS02006229           JUNCTION      0.00   313.94     0  04:08           0        3.46       0.232
  WS02006280           JUNCTION      0.00    57.13     0  02:36           0       0.444       0.017
  WS02006284           JUNCTION      0.10    57.14     0  02:36      0.0027       0.445       0.268
  WS02006287           JUNCTION      0.00    57.04     0  02:36           0       0.443       0.156
  WSF200               JUNCTION      0.00   284.99     0  04:15           0        3.24       0.067
  HS02004901           JUNCTION      2.73     2.73     0  02:22      0.0111      0.0112      18.515
  HS02004881           JUNCTION      1.11     9.03     0  02:34     0.00482      0.0496       0.133
  HS02004876           JUNCTION      1.78     8.06     0  02:32     0.00915      0.0453       1.129
  HS02004870           JUNCTION      1.96     6.32     0  02:32     0.00909      0.0362       0.286
  HS02004862           JUNCTION      1.78     4.47     0  02:33      0.0146      0.0273       0.599
  HS02004856           JUNCTION      1.45     2.72     0  02:32     0.00684      0.0142      11.248
  HS02004852           JUNCTION      0.00     1.35     0  02:34           0     0.00738       0.587
  HS02004848           JUNCTION      3.24     3.24     0  02:34       0.021       0.021       0.185
  HS02004842           JUNCTION      0.00     4.47     0  00:03           0      0.0266      95.362
  HS02004837           JUNCTION      9.50    11.36     0  02:29       0.195       0.208       0.392
  HS02004830           JUNCTION      0.15    11.51     0  02:30     0.00423       0.199       0.623
  HS02004824           JUNCTION      3.68    15.16     0  02:34      0.0279       0.225       0.239
  HS02004817           JUNCTION      0.60    15.76     0  02:35      0.0169       0.242       7.395
  HS02004807           JUNCTION      3.68    19.15     0  02:34      0.0168       0.242       1.775
  HS02004802           JUNCTION      0.00    19.13     0  02:36           0       0.238       1.733
  HS02004799           JUNCTION      2.84    32.36     0  02:32      0.0135       0.196       1.151
  HS02004792           JUNCTION     12.87    29.63     0  02:32      0.0644       0.183       0.230
  HS02004788           JUNCTION      5.53    17.60     0  02:35      0.0658        0.12       0.330
  HS02004785           JUNCTION      0.15    12.33     0  02:34     0.00423      0.0558       0.849
  HS02004777           JUNCTION      0.03    12.44     0  02:31    0.000846       0.056      10.154
  HS02004770           JUNCTION     10.72    12.98     0  02:25      0.0472      0.0567       5.780
  HS02004480           JUNCTION      0.00    37.97     0  02:34           0       0.221       0.274
  HS02004479           JUNCTION      0.00     5.69     0  02:36           0      0.0381       1.945
  HS02004478           JUNCTION      0.00    57.04     0  02:35           0       0.444       0.162
  YS02001745           JUNCTION     17.12    17.12     0  03:01       0.221       0.221       0.103
  YS02001748           JUNCTION      0.04    17.15     0  03:01     0.00127       0.222       0.053
  YS02001751           JUNCTION      0.01    31.05     0  05:01     0.00031       0.279       0.716
  YS02001754           JUNCTION      0.26   111.40     0  05:01     0.00733       0.527       1.636
  YS02001762           JUNCTION      0.00    29.37     0  03:15           0       0.302       4.537
  YS02001765           JUNCTION      0.00    41.51     0  04:49           0       0.292       4.875
  YS02001767           JUNCTION      0.54    37.39     0  05:05      0.0151       0.296       6.818
  YS02001770           JUNCTION     22.76    25.46     0  02:58       0.273       0.285       5.852
  YS02001774           JUNCTION      0.00    12.65     0  02:52           0      0.0556      34.206
  YS02001779           JUNCTION      0.01     7.14     0  04:41    0.000141      0.0303      19.530
  YS02001882           JUNCTION      0.00     1.23     0  02:12           0     0.00218     116.844
  YS02001884           JUNCTION      0.00     3.88     0  02:11           0     0.00913      70.171
  YS02001759           JUNCTION     22.38    54.04     0  04:41       0.257       0.532       3.008
  YS02001887           JUNCTION     30.20    30.20     0  03:01       0.327       0.331       1.834
  YS02001890           JUNCTION      0.00    29.93     0  03:01           0       0.317       2.130
  YS02001898           JUNCTION      0.00    29.72     0  03:01           0       0.308       0.473
  YS02001901           JUNCTION      0.00    29.72     0  03:02           0       0.308       1.438
  YS02001904           JUNCTION      0.00    29.67     0  03:03           0       0.307       1.347
  YS02001907           JUNCTION      0.00    54.66     0  03:04           0       0.671       3.098
  YS02001910           JUNCTION      0.00    25.07     0  03:01           0       0.374       2.383
  YS02001915           JUNCTION     15.58    25.14     0  03:01       0.194       0.377       0.850
  YS02001918           JUNCTION      0.00     9.70     0  03:05           0       0.184       0.321
  YS02001619           JUNCTION     15.06    15.06     0  03:01       0.189       0.189       0.216
  YS02001629           JUNCTION      0.00    20.58     0  03:01           0       0.177       3.028
  YS02001641           JUNCTION      0.00    43.02     0  03:02           0       0.363       3.512
  YS02001644           JUNCTION     16.24    57.97     0  03:01       0.212       0.555       2.768
  YS02001652           JUNCTION      0.00    32.68     0  05:06           0        0.26       3.293
  YS02001655           JUNCTION      0.15    21.21     0  03:01     0.00434       0.235       1.255
  YS02001920           JUNCTION      2.87     9.71     0  03:04      0.0809       0.186       0.762
  YS02001923           JUNCTION      0.04     6.84     0  03:03     0.00106       0.105       0.142
  YS02001926           JUNCTION      0.05     6.83     0  03:01     0.00147       0.105       1.063
  YS02001929           JUNCTION      6.79     6.79     0  03:01       0.104       0.104       0.129
  YS02001658           JUNCTION      0.00    21.06     0  03:01           0       0.229       0.070
  YS02001661           JUNCTION      0.00    21.07     0  03:01           0        0.23       0.273
  YS02001664           JUNCTION     21.07    21.07     0  03:01        0.23        0.23       0.048
  YS02001622           JUNCTION      0.00    16.69     0  03:02           0       0.189       1.048
  YS02001633           JUNCTION     16.58    39.76     0  03:02       0.221       0.385       4.753
  YS02001649           JUNCTION      0.00    79.42     0  03:01           0       0.767       3.065
  YS02001757           JUNCTION      0.00   196.38     0  04:50           0        1.62       4.386
  YS02001895           JUNCTION      0.00    29.79     0  03:01           0        0.31       0.791
  YS02001625           JUNCTION      0.00    20.31     0  03:01           0       0.187       7.621
  YS02163301           JUNCTION      0.00    23.47     0  03:02           0       0.178       6.955
  YS02163601           JUNCTION      0.11    41.99     0  03:03      0.0031       0.368       5.239
  YS02164001           JUNCTION      0.00    43.62     0  03:02           0       0.359       3.225
  YS02001647           JUNCTION      0.00    61.81     0  03:01           0        0.53       2.164
  YSB1154              JUNCTION      3.16     3.16     0  02:28      0.0163      0.0178       8.850
  YSB6556              JUNCTION      0.00     3.11     0  02:31           0      0.0188       7.051
  YSB1174              JUNCTION      3.10     3.10     0  02:22       0.012      0.0131      10.884
  YSB1171              JUNCTION      0.00     5.76     0  02:33           0      0.0375      20.252
  YS02006553           JUNCTION      0.00    54.72     0  03:05           0       0.659       2.036
  YS02006561           JUNCTION      0.00    79.78     0  03:04           0       0.917       0.042
  YS02006556           JUNCTION      0.00    54.79     0  03:06           0        0.66       1.443
  YS02006558           JUNCTION     25.76    79.79     0  03:04       0.301       0.941       0.429
  YS02001783           JUNCTION      0.00    79.77     0  03:04           0       0.917       0.097
  YS02001784           JUNCTION      1.06    80.82     0  03:04      0.0299       0.946       0.165
  YS02001786           JUNCTION      0.06    80.87     0  03:05     0.00159       0.946       0.166
  YS02001788           JUNCTION      0.07    80.94     0  03:05       0.002       0.947       0.088
  YS02001790           JUNCTION      0.15    81.09     0  03:05     0.00437        0.95       0.116
  YS02001791           JUNCTION      0.00    81.08     0  03:06           0       0.949       0.054
  YS02001793           JUNCTION      0.00    81.08     0  03:06           0       0.948       0.024
  WS02004139           JUNCTION      0.32   285.35     0  01:20     0.00905        6.65       0.457
  WSC                  OUTFALL       0.00   545.93     0  04:24           0        10.4       0.000
  3                    OUTFALL       0.00   250.55     0  00:00           0       0.127       0.000
  4                    OUTFALL       0.00     0.00     0  00:00           0           0       0.000 ltr
  5                    OUTFALL       0.00     0.00     0  00:00           0           0       0.000 ltr
  JK-storage           STORAGE       0.00    81.08     0  03:06           0         1.1     -29.808
  CC-storage           STORAGE       0.00   122.94     0  03:14           0        1.31      -0.004
  XR-storage           STORAGE     228.30   228.30     0  03:01           6         6.6      -0.989
  
  
  **********************
  Node Surcharge Summary
  **********************
  
  No nodes were surcharged.
  
  
  *********************
  Node Flooding Summary
  *********************
  
  No nodes were flooded.
  
  
  **********************
  Storage Volume Summary
  **********************
  
  --------------------------------------------------------------------------------------------------
                         Average     Avg  Evap Exfil       Maximum     Max    Time of Max    Maximum
                          Volume    Pcnt  Pcnt  Pcnt        Volume    Pcnt     Occurrence    Outflow
  Storage Unit           1000 m3    Full  Loss  Loss       1000 m3    Full    days hr:min        LPS
  --------------------------------------------------------------------------------------------------
  JK-storage               0.004       1     0     0         0.151      52       0  00:00     300.00
  CC-storage               0.003       0     0     0         0.047       0       0  03:54     200.00
  XR-storage               0.237      26     0     0         0.681      73       0  00:15     285.00
  
  
  ***********************
  Outfall Loading Summary
  ***********************
  
  -----------------------------------------------------------
                         Flow       Avg       Max       Total
                         Freq      Flow      Flow      Volume
  Outfall Node           Pcnt       LPS       LPS    10^6 ltr
  -----------------------------------------------------------
  WSC                   99.99    403.24    545.93      10.397
  3                     14.83     52.03    250.55       0.127
  4                      0.00      0.00      0.00       0.000
  5                      0.00      0.00      0.00       0.000
  -----------------------------------------------------------
  System                28.70    455.26    581.39      10.524
  
  
  ********************
  Link Flow Summary
  ********************
  
  -----------------------------------------------------------------------------
                                 Maximum  Time of Max   Maximum    Max/    Max/
                                  |Flow|   Occurrence   |Veloc|    Full    Full
  Link                 Type          LPS  days hr:min     m/sec    Flow   Depth
  -----------------------------------------------------------------------------
  WS02003066WSF200     CONDUIT    284.99     0  04:15      2.41    0.05    0.16
  WS02006287WS02006284 CONDUIT     57.04     0  02:36      1.01    0.03    0.12
  WS02006284WS02006280 CONDUIT     57.13     0  02:36      1.27    0.02    0.11
  WS02006280WS02006229 CONDUIT     57.13     0  02:36      2.03    0.01    0.08
  WS02006229WS02006228 CONDUIT    313.69     0  04:08      0.83    1.04    0.88
  WS02006256WS02006235 CONDUIT    166.25     0  00:01      2.58    1.76    1.00
  WS02006253WS02006251 CONDUIT     51.85     0  04:06      0.28    0.16    0.57
  WS02006252WS02006251 CONDUIT    200.33     0  04:00      2.29    0.74    0.76
  WS02006251WS02006249 CONDUIT    201.28     0  04:04      0.92    0.58    0.56
  WS02006249WS02006248 CONDUIT    200.61     0  04:05      1.00    1.10    0.53
  WS02006248WS02006247 CONDUIT    199.89     0  04:05      0.97    0.44    0.54
  WS02006247WS02006245 CONDUIT    199.12     0  04:05      0.94    1.58    0.56
  WS02006245WS02006243 CONDUIT    198.03     0  04:06      1.02    0.59    0.55
  WS02006243WS02006242 CONDUIT    195.32     0  04:06      0.85    0.42    0.64
  WS02006242WS02006240 CONDUIT    193.10     0  04:06      0.73    0.77    0.71
  WS02006240WS02006239 CONDUIT    191.49     0  04:07      0.75    0.60    0.69
  WS02006239WS02006238 CONDUIT    190.52     0  04:07      0.67    0.61    0.79
  WS02006238WS02006235 CONDUIT    190.02     0  04:07      1.25    0.42    0.82
  WS02006235WS02006234 CONDUIT    288.05     0  04:07      0.93    3.04    0.76
  WS02006234WS02006232 CONDUIT    287.50     0  04:07      1.13    0.58    0.82
  WS02006232WS02006231 CONDUIT    287.22     0  04:08      0.90    0.60    0.77
  WS02006231WS02006230 CONDUIT    286.76     0  04:08      1.25    4.35    0.57
  WS02006230WS02006229 CONDUIT    296.87     0  04:08      0.86    6.61    0.96
  WS02006228WS02006109 CONDUIT    313.50     0  04:08      0.75    1.37    0.91
  WS02006116WS02004401 CONDUIT    303.92     0  04:10      0.73    0.42    0.64
  WS02006115WS02006116 CONDUIT    307.08     0  04:10      0.79    0.39    0.56
  WS02006113WS02006111 CONDUIT    317.96     0  04:09      2.05    0.38    0.35
  WS02006112WS02006115 CONDUIT    311.06     0  04:10      0.55    0.18    0.68
  WS02006111WS02006112 CONDUIT    313.91     0  04:09      1.32    0.15    0.63
  WS02006110WS02006113 CONDUIT    314.18     0  04:09      0.87    0.29    0.68
  WS02006109WS02006110 CONDUIT    314.53     0  04:09      0.68    0.60    0.86
  WS02004411WS02004412 CONDUIT    288.28     0  04:14      0.70    0.41    0.52
  WS02004401WS02004402 CONDUIT    301.32     0  04:11      0.77    0.36    0.68
  WS02004413WS02003067 CONDUIT    285.05     0  04:15      0.79    0.12    0.47
  WS02004412WS02004413 CONDUIT    286.14     0  04:14      0.56    0.19    0.62
  WS02004410WS02004411 CONDUIT    290.59     0  04:13      0.74    0.40    0.50
  WS02004409WS02004410 CONDUIT    293.31     0  04:13      0.79    0.38    0.48
  WS02004407WS02004409 CONDUIT    295.87     0  04:12      1.24    0.10    0.34
  WS02004406WS02004407 CONDUIT    296.13     0  04:12      0.73    0.13    0.51
  WS02004405WS02004406 CONDUIT    296.70     0  04:12      0.66    0.59    0.80
  WS02004404WS02004405 CONDUIT    297.49     0  04:11      0.84    2.91    0.79
  WS02004403WS02004404 CONDUIT    298.08     0  04:11      0.74    0.22    0.76
  WS02004402WS02004403 CONDUIT    299.48     0  04:11      0.75    0.43    0.71
  WS02004139WS02001211 CONDUIT    285.75     0  04:55      0.53    0.36    0.51
  WS02004138WS02004139 CONDUIT    285.03     0  01:20      2.39    0.06    0.38
  WS02003067WS02003066 CONDUIT    285.03     0  04:15      0.84    0.09    0.34
  WS02001213WS02003059 CONDUIT    295.22     0  04:54      0.59    0.49    0.65
  WS02001212WS02001213 CONDUIT    294.17     0  04:55      1.19    0.45    0.36
  WS02001211WS02001212 CONDUIT    293.61     0  04:55      0.67    0.22    0.55
  WS02003072WS02003073 CONDUIT    544.56     0  04:24      1.43    1.18    0.37
  WS02003069WS02003072 CONDUIT    544.81     0  04:23      1.36    0.26    0.38
  WS02003060WS02003069 CONDUIT    544.79     0  04:22      1.63    0.21    0.34
  WS02003059WS02003060 CONDUIT    296.77     0  04:55      0.82    0.19    0.53
  HS02004901HS02004770 CONDUIT      2.42     0  02:30      0.02    0.01    0.20
  HS02004876HS02004881 CONDUIT      8.02     0  02:35      0.24    0.09    0.05
  HS02004870HS02004876 CONDUIT      6.31     0  02:33      0.17    0.00    0.05
  HS02004842HS02004848 CONDUIT      1.93     0  02:41      0.01    0.00    0.25
  HS02004837HS02004842 CONDUIT      4.47     0  00:03      0.41    0.00    0.26
  HS02004830HS02004837 CONDUIT     11.36     0  02:30      0.32    0.01    0.05
  HS02004824HS02004830 CONDUIT     11.51     0  02:32      0.37    0.02    0.04
  HS02004817HS02004824 CONDUIT     15.16     0  02:35      0.17    0.01    0.34
  HS02004770HS02004777 CONDUIT     12.41     0  02:31      0.08    0.02    0.22
  HS02004799HS02004480 CONDUIT     32.30     0  02:33      0.28    0.04    0.17
  HS02004792HS02004799 CONDUIT     29.62     0  02:33      0.33    0.02    0.13
  HS02004788HS02004792 CONDUIT     17.59     0  02:35      0.50    0.01    0.05
  HS02004785HS02004788 CONDUIT     12.27     0  02:36      0.26    0.09    0.07
  HS02004777HS02004785 CONDUIT     12.18     0  02:34      0.10    0.01    0.17
  HS02004480HS02004478 CONDUIT     37.94     0  02:35      0.53    0.16    0.10
  HS02004479HS02004480 CONDUIT      5.73     0  02:37      0.15    0.01    0.17
  HS02004862HS02004870 CONDUIT      4.46     0  02:35      0.26    0.00    0.02
  HS02004848HS02004852 CONDUIT      1.35     0  02:34      0.15    0.00    0.01
  HS02004856HS02004862 CONDUIT      2.71     0  02:34      0.17    0.00    0.02
  HS02004852HS02004856 CONDUIT      1.34     0  02:36      0.03    0.00    0.07
  HS02004802HS02004478 CONDUIT     19.16     0  02:38      0.16    0.02    0.17
  HS02004478WS02006287 CONDUIT     57.04     0  02:36      0.72    0.02    0.09
  HS02004817HS02004807 CONDUIT     15.79     0  02:39      0.05    0.01    0.42
  HS02004807HS02004802 CONDUIT     19.13     0  02:36      0.19    0.04    0.21
  YS02001759YS02001757 CONDUIT     51.39     0  03:06      0.12    0.04    0.75
  YS02001762YS02001759 CONDUIT     41.81     0  04:59      0.17    0.05    0.68
  YS02001765YS02001762 CONDUIT     29.37     0  03:15      0.22    0.03    0.64
  YS02001770YS02001767 CONDUIT     26.99     0  03:06      0.25    0.11    0.57
  YS02001774YS02001770 CONDUIT     12.65     0  02:52      0.12    0.01    0.59
  YS02001779YS02001774 CONDUIT      7.44     0  04:49      0.03    0.00    0.51
  YS02001649YS02001757 CONDUIT     77.37     0  03:12      0.13    0.05    0.74
  YS02001767YS02001765 CONDUIT     41.51     0  04:49      0.25    0.05    0.59
  YS02006561YS02001783 CONDUIT     79.77     0  03:04      1.25    0.04    0.18
  YS02001783YS02001784 CONDUIT     79.76     0  03:04      0.80    0.11    0.25
  YS02001784YS02001785 CONDUIT     80.81     0  03:05      0.80    0.19    0.26
  YS02001788YS02001790 CONDUIT     80.93     0  03:05      1.28    0.06    0.18
  YS02001790YS02001791 CONDUIT     81.08     0  03:06      1.46    0.09    0.17
  YS02001791YS02001793 CONDUIT     81.08     0  03:06      2.60    0.03    0.11
  YS02001910YS02001907 CONDUIT     25.06     0  03:05      0.49    0.01    0.54
  YS02001786YS02001788 CONDUIT     80.87     0  03:05      1.13    0.16    0.20
  YS02001915YS02001910 CONDUIT     25.07     0  03:01      0.44    0.01    0.33
  YS02001918YS02001915 CONDUIT      9.70     0  03:06      0.44    0.01    0.14
  YS02001923YS02001920 CONDUIT      6.84     0  03:04      0.20    0.00    0.09
  YS02001926YS02001923 CONDUIT      6.80     0  03:03      0.27    0.01    0.07
  YS02001929YS02001926 CONDUIT      6.78     0  03:01      0.28    0.00    0.07
  YS02001920YS02001918 CONDUIT      9.70     0  03:05      0.26    0.01    0.09
  YS02001629YS02163301 CONDUIT     23.47     0  03:02      0.06    0.03    0.53
  YS02001619YS02001622 CONDUIT     16.69     0  03:02      0.43    0.02    0.15
  YS02001622YS02001625 CONDUIT     20.31     0  03:01      0.14    0.01    0.31
  YS02001625YS02001629 CONDUIT     20.58     0  03:01      0.11    0.01    0.30
  YS02163301YS02001633 CONDUIT     23.31     0  03:02      0.06    0.02    0.58
  YS02163601YS02164001 CONDUIT     43.62     0  03:02      0.09    0.04    0.63
  YS02164001YS02001641 CONDUIT     43.02     0  03:02      0.09    0.06    0.61
  YS02001641YS02001644 CONDUIT     41.77     0  03:01      0.09    0.14    0.63
  YS02001647YS02001649 CONDUIT     58.98     0  03:02      0.13    0.03    0.56
  YS02006553YS02006556 CONDUIT     54.79     0  03:06      0.18    0.05    0.62
  YS02006556YS02006558 CONDUIT     54.83     0  03:06      0.10    0.04    0.65
  YSB6556YSB1171       CONDUIT      3.11     0  02:37      0.03    0.00    0.44
  YS02001907YS02006553 CONDUIT     54.72     0  03:05      0.09    0.06    0.71
  YS02006558YS02006561 CONDUIT     79.78     0  03:04      1.58    0.18    0.23
  YS02001633YS02163601 CONDUIT     41.88     0  03:03      0.08    0.04    0.63
  YS02001644YS02001647 CONDUIT     61.81     0  03:01      0.15    0.04    0.54
  YS02001745YS02001748 CONDUIT     17.11     0  03:01      0.93    0.01    0.06
  YS02001748YS02001751 CONDUIT     17.15     0  03:01      0.77    0.01    0.12
  YS02001751YS02001754 CONDUIT     41.81     0  04:45      0.72    0.02    0.29
  YS02001754YS02001757 CONDUIT     91.25     0  05:02      0.33    0.04    0.63
  YS02001882YS02001884 CONDUIT      1.23     0  02:12      0.05    0.00    0.26
  YS02001884YS02001887 CONDUIT      3.88     0  02:11      0.04    0.01    0.35
  YS02001890YS02001895 CONDUIT     29.79     0  03:01      0.14    0.01    0.32
  YS02001895YS02001898 CONDUIT     29.72     0  03:01      0.34    0.05    0.19
  YS02001898YS02001901 CONDUIT     29.72     0  03:02      0.18    0.02    0.27
  YS02001901YS02001904 CONDUIT     29.67     0  03:03      0.18    0.05    0.32
  YS02001904YS02001907 CONDUIT     29.68     0  03:04      0.08    0.01    0.48
  YS02001887YS02001890 CONDUIT     29.93     0  03:01      0.10    0.05    0.40
  YS02001652YS02001649 CONDUIT     32.36     0  04:41      0.21    0.02    0.57
  YS02001655YS02001652 CONDUIT     23.67     0  03:01      0.77    0.01    0.32
  YS02001658YS02001655 CONDUIT     21.06     0  03:01      0.87    0.01    0.14
  YS02001661YS02001658 CONDUIT     21.06     0  03:01      0.96    0.01    0.07
  YS02001664YS02001661 CONDUIT     21.07     0  03:01      0.54    0.01    0.10
  YSB1154YSB6556       CONDUIT      3.11     0  02:31      0.19    0.01    0.33
  YSB1174YSB1171       CONDUIT      2.91     0  02:22      0.02    0.00    0.44
  YSB1171HS02004479    CONDUIT      5.69     0  02:36      0.54    0.00    0.33
  HS02004881HS02006253 CONDUIT      9.03     0  02:34      0.94    0.00    0.06
  YS02001793JiankangQianchi CONDUIT     81.08     0  03:06      8.82    0.01    0.50
  YS02001757CaochengTiaoxuchi CONDUIT    122.94     0  03:14      0.42    0.05    0.41
  WSF200WS02003060     CONDUIT    285.51     0  04:15      1.36    0.06    0.24
  1                    CONDUIT    545.93     0  04:24      2.81    0.19    0.30
  2                    CONDUIT      0.00     0  00:00      0.00    0.00    0.00
  3                    CONDUIT    250.55     0  00:00      8.26    0.40    0.46
  4                    CONDUIT      0.00     0  00:00      0.00    0.00    0.00
  CC-Pump-1            PUMP         0.00     0  00:00              0.00
  CC-Pump-2            PUMP       200.00     0  04:00              1.00
  JK-Pump-1            PUMP        78.65     0  02:57              0.26
  JK-Pump-2            PUMP       300.00     0  00:00              1.00
  XR-Pump-1            PUMP        95.00     0  00:20              1.00
  XR-Pump-2            PUMP         0.00     0  00:00              0.00
  XR-Pump-3            PUMP        95.00     0  00:00              1.00
  XR-Pump-4            PUMP        95.00     0  00:50              1.00
  
  
  ***************************
  Flow Classification Summary
  ***************************
  
  -------------------------------------------------------------------------------------
                      Adjusted    ---------- Fraction of Time in Flow Class ---------- 
                       /Actual         Up    Down  Sub   Sup   Up    Down  Norm  Inlet 
  Conduit               Length    Dry  Dry   Dry   Crit  Crit  Crit  Crit  Ltd   Ctrl  
  -------------------------------------------------------------------------------------
  WS02003066WSF200        1.00   0.10  0.00  0.00  0.00  0.90  0.00  0.00  0.77  0.00
  WS02006287WS02006284    1.00   0.06  0.02  0.00  0.78  0.13  0.00  0.00  0.81  0.00
  WS02006284WS02006280    1.00   0.07  0.00  0.00  0.00  0.00  0.00  0.93  0.00  0.00
  WS02006280WS02006229    1.00   0.07  0.00  0.00  0.00  0.00  0.00  0.93  0.00  0.00
  WS02006229WS02006228    1.00   0.00  0.00  0.00  0.98  0.00  0.00  0.02  0.00  0.00
  WS02006256WS02006235    1.00   0.00  0.00  0.00  0.99  0.01  0.00  0.00  0.00  0.00
  WS02006253WS02006251    1.00   0.05  0.02  0.00  0.93  0.00  0.00  0.00  0.00  0.00
  WS02006252WS02006251    1.00   0.17  0.00  0.00  0.00  0.00  0.83  0.00  0.00  0.00
  WS02006251WS02006249    1.00   0.00  0.00  0.00  1.00  0.00  0.00  0.00  0.37  0.00
  WS02006249WS02006248    1.00   0.00  0.03  0.00  0.78  0.00  0.18  0.00  0.00  0.00
  WS02006248WS02006247    1.00   0.04  0.00  0.00  0.96  0.00  0.00  0.00  0.30  0.00
  WS02006247WS02006245    1.00   0.03  0.00  0.00  0.97  0.00  0.00  0.00  0.00  0.00
  WS02006245WS02006243    1.00   0.02  0.01  0.00  0.90  0.00  0.00  0.07  0.05  0.00
  WS02006243WS02006242    1.00   0.01  0.01  0.00  0.98  0.00  0.00  0.00  0.52  0.00
  WS02006242WS02006240    1.00   0.01  0.00  0.00  0.99  0.00  0.00  0.00  0.00  0.00
  WS02006240WS02006239    1.00   0.00  0.00  0.00  0.92  0.00  0.00  0.07  0.02  0.00
  WS02006239WS02006238    1.00   0.00  0.00  0.00  1.00  0.00  0.00  0.00  0.02  0.00
  WS02006238WS02006235    1.00   0.00  0.00  0.00  1.00  0.00  0.00  0.00  0.00  0.00
  WS02006235WS02006234    1.00   0.00  0.00  0.00  0.91  0.00  0.09  0.00  0.00  0.00
  WS02006234WS02006232    1.00   0.00  0.00  0.00  1.00  0.00  0.00  0.00  0.09  0.00
  WS02006232WS02006231    1.00   0.00  0.00  0.00  0.99  0.00  0.01  0.00  0.00  0.00
  WS02006231WS02006230    1.00   0.01  0.00  0.00  0.00  0.00  0.99  0.00  0.00  0.00
  WS02006230WS02006229    1.00   0.00  0.00  0.00  0.98  0.00  0.00  0.02  0.01  0.00
  WS02006228WS02006109    1.00   0.00  0.00  0.00  0.99  0.00  0.00  0.01  0.00  0.00
  WS02006116WS02004401    1.00   0.04  0.00  0.00  0.96  0.00  0.00  0.00  0.00  0.00
  WS02006115WS02006116    1.00   0.04  0.00  0.00  0.95  0.00  0.00  0.01  0.00  0.00
  WS02006113WS02006111    1.00   0.03  0.00  0.00  0.00  0.97  0.00  0.00  0.15  0.00
  WS02006112WS02006115    1.00   0.04  0.00  0.00  0.96  0.00  0.00  0.00  0.00  0.00
  WS02006111WS02006112    1.00   0.04  0.00  0.00  0.96  0.00  0.00  0.00  0.98  0.00
  WS02006110WS02006113    1.00   0.02  0.01  0.00  0.97  0.00  0.00  0.00  0.00  0.00
  WS02006109WS02006110    1.00   0.00  0.02  0.00  0.97  0.00  0.01  0.00  0.00  0.00
  WS02004411WS02004412    1.00   0.06  0.00  0.00  0.94  0.00  0.00  0.00  0.00  0.00
  WS02004401WS02004402    1.00   0.04  0.00  0.00  0.96  0.00  0.00  0.00  0.00  0.00
  WS02004413WS02003067    1.00   0.06  0.02  0.00  0.00  0.00  0.91  0.00  0.00  0.00
  WS02004412WS02004413    1.00   0.06  0.00  0.00  0.94  0.00  0.00  0.00  0.03  0.00
  WS02004410WS02004411    1.00   0.06  0.00  0.00  0.94  0.00  0.00  0.00  0.04  0.00
  WS02004409WS02004410    1.00   0.06  0.00  0.00  0.94  0.00  0.00  0.00  0.04  0.00
  WS02004407WS02004409    1.00   0.06  0.00  0.00  0.94  0.00  0.00  0.00  0.89  0.00
  WS02004406WS02004407    1.00   0.00  0.06  0.00  0.94  0.00  0.00  0.00  0.00  0.00
  WS02004405WS02004406    1.00   0.00  0.00  0.00  1.00  0.00  0.00  0.00  0.00  0.00
  WS02004404WS02004405    1.00   0.00  0.00  0.00  1.00  0.00  0.00  0.00  0.00  0.00
  WS02004403WS02004404    1.00   0.00  0.04  0.00  0.96  0.00  0.00  0.00  0.01  0.00
  WS02004402WS02004403    1.00   0.04  0.00  0.00  0.96  0.00  0.00  0.00  0.00  0.00
  WS02004139WS02001211    1.00   0.00  0.00  0.00  0.99  0.00  0.01  0.00  0.00  0.00
  WS02004138WS02004139    1.00   0.00  0.00  0.00  0.98  0.01  0.00  0.00  1.00  0.00
  WS02003067WS02003066    1.00   0.09  0.01  0.00  0.91  0.00  0.00  0.00  0.00  0.00
  WS02001213WS02003059    1.00   0.00  0.01  0.00  0.98  0.00  0.00  0.00  0.00  0.00
  WS02001212WS02001213    1.00   0.01  0.00  0.00  0.18  0.00  0.80  0.00  0.00  0.00
  WS02001211WS02001212    1.00   0.00  0.01  0.00  0.99  0.00  0.00  0.00  0.00  0.00
  WS02003072WS02003073    1.00   0.00  0.00  0.00  0.00  0.00  0.00  1.00  0.00  0.00
  WS02003069WS02003072    1.00   0.00  0.00  0.00  0.99  0.01  0.00  0.00  0.44  0.00
  WS02003060WS02003069    1.00   0.00  0.00  0.00  0.98  0.02  0.00  0.00  0.13  0.00
  WS02003059WS02003060    1.00   0.00  0.00  0.00  0.99  0.01  0.00  0.00  0.02  0.00
  HS02004901HS02004770    1.00   0.07  0.00  0.00  0.93  0.00  0.00  0.00  0.03  0.00
  HS02004876HS02004881    1.00   0.04  0.00  0.00  0.96  0.00  0.00  0.00  0.00  0.00
  HS02004870HS02004876    1.00   0.01  0.00  0.00  0.99  0.00  0.00  0.00  0.95  0.00
  HS02004842HS02004848    1.00   0.00  0.07  0.00  0.93  0.00  0.00  0.00  0.74  0.00
  HS02004837HS02004842    1.00   0.00  0.00  0.00  0.99  0.01  0.00  0.00  0.11  0.00
  HS02004830HS02004837    1.00   0.00  0.00  0.00  1.00  0.00  0.00  0.00  0.99  0.00
  HS02004824HS02004830    1.00   0.00  0.00  0.00  1.00  0.00  0.00  0.00  0.00  0.00
  HS02004817HS02004824    1.00   0.00  0.00  0.00  1.00  0.00  0.00  0.00  1.00  0.00
  HS02004770HS02004777    1.00   0.00  0.07  0.00  0.93  0.00  0.00  0.00  0.08  0.00
  HS02004799HS02004480    1.00   0.01  0.04  0.00  0.91  0.00  0.05  0.00  0.00  0.00
  HS02004792HS02004799    1.00   0.00  0.00  0.00  0.98  0.02  0.00  0.00  0.98  0.00
  HS02004788HS02004792    1.00   0.00  0.00  0.00  0.98  0.02  0.00  0.00  0.98  0.00
  HS02004785HS02004788    1.00   0.00  0.00  0.00  1.00  0.00  0.00  0.00  0.00  0.00
  HS02004777HS02004785    1.00   0.00  0.00  0.00  1.00  0.00  0.00  0.00  0.23  0.00
  HS02004480HS02004478    1.00   0.08  0.00  0.00  0.78  0.00  0.00  0.14  0.00  0.00
  HS02004479HS02004480    1.00   0.04  0.00  0.00  0.96  0.00  0.00  0.00  0.16  0.00
  HS02004862HS02004870    1.00   0.00  0.00  0.00  1.00  0.00  0.00  0.00  0.06  0.00
  HS02004848HS02004852    1.00   0.07  0.00  0.00  0.93  0.00  0.00  0.00  0.67  0.00
  HS02004856HS02004862    1.00   0.00  0.12  0.00  0.88  0.00  0.00  0.00  0.72  0.00
  HS02004852HS02004856    1.00   0.07  0.01  0.00  0.92  0.00  0.00  0.00  0.82  0.00
  HS02004802HS02004478    1.00   0.07  0.01  0.00  0.92  0.00  0.00  0.00  0.00  0.00
  HS02004478WS02006287    1.00   0.09  0.00  0.00  0.91  0.00  0.00  0.00  0.81  0.00
  HS02004817HS02004807    1.00   0.00  0.07  0.00  0.93  0.00  0.00  0.00  0.00  0.00
  HS02004807HS02004802    1.00   0.07  0.00  0.00  0.92  0.00  0.00  0.00  0.01  0.00
  YS02001759YS02001757    1.00   0.00  0.00  0.00  1.00  0.00  0.00  0.00  0.17  0.00
  YS02001762YS02001759    1.00   0.00  0.00  0.00  1.00  0.00  0.00  0.00  0.06  0.00
  YS02001765YS02001762    1.00   0.00  0.00  0.00  1.00  0.00  0.00  0.00  0.24  0.00
  YS02001770YS02001767    1.00   0.00  0.00  0.00  1.00  0.00  0.00  0.00  0.00  0.00
  YS02001774YS02001770    1.00   0.00  0.09  0.00  0.91  0.00  0.00  0.00  0.07  0.00
  YS02001779YS02001774    1.00   0.00  0.00  0.00  1.00  0.00  0.00  0.00  0.30  0.00
  YS02001649YS02001757    1.00   0.00  0.00  0.00  1.00  0.00  0.00  0.00  0.20  0.00
  YS02001767YS02001765    1.00   0.00  0.00  0.00  1.00  0.00  0.00  0.00  0.01  0.00
  YS02006561YS02001783    1.00   0.12  0.00  0.00  0.00  0.88  0.00  0.00  0.71  0.00
  YS02001783YS02001784    1.00   0.00  0.12  0.00  0.88  0.00  0.00  0.00  0.39  0.00
  YS02001784YS02001785    1.00   0.00  0.00  0.00  1.00  0.00  0.00  0.00  0.28  0.00
  YS02001788YS02001790    1.00   0.00  0.00  0.00  0.12  0.88  0.00  0.00  0.99  0.00
  YS02001790YS02001791    1.00   0.00  0.00  0.00  0.03  0.97  0.00  0.00  0.05  0.00
  YS02001791YS02001793    1.00   0.00  0.00  0.00  0.00  1.00  0.00  0.00  0.00  0.00
  YS02001910YS02001907    1.00   0.00  0.00  0.00  0.96  0.00  0.00  0.04  0.13  0.00
  YS02001786YS02001788    1.00   0.00  0.00  0.00  0.47  0.53  0.00  0.00  0.00  0.00
  YS02001915YS02001910    1.00   0.00  0.00  0.00  0.98  0.02  0.00  0.00  0.26  0.00
  YS02001918YS02001915    1.00   0.00  0.01  0.00  0.97  0.02  0.00  0.00  0.80  0.00
  YS02001923YS02001920    1.00   0.00  0.00  0.00  1.00  0.00  0.00  0.00  1.00  0.00
  YS02001926YS02001923    1.00   0.00  0.05  0.00  0.00  0.00  0.95  0.00  0.00  0.00
  YS02001929YS02001926    1.00   0.00  0.07  0.00  0.93  0.00  0.00  0.00  0.86  0.00
  YS02001920YS02001918    1.00   0.00  0.01  0.00  0.99  0.00  0.00  0.00  0.00  0.00
  YS02001629YS02163301    1.00   0.10  0.01  0.00  0.89  0.00  0.00  0.00  0.00  0.00
  YS02001619YS02001622    1.00   0.07  0.00  0.00  0.93  0.00  0.00  0.00  0.00  0.00
  YS02001622YS02001625    1.00   0.07  0.00  0.00  0.93  0.00  0.00  0.00  0.16  0.00
  YS02001625YS02001629    1.00   0.07  0.05  0.00  0.84  0.00  0.04  0.00  0.00  0.00
  YS02163301YS02001633    1.00   0.00  0.10  0.00  0.90  0.00  0.00  0.00  0.00  0.00
  YS02163601YS02164001    1.00   0.00  0.06  0.00  0.94  0.00  0.00  0.00  0.00  0.00
  YS02164001YS02001641    1.00   0.01  0.04  0.00  0.94  0.00  0.00  0.00  0.07  0.00
  YS02001641YS02001644    1.00   0.00  0.01  0.00  0.99  0.00  0.00  0.00  0.00  0.00
  YS02001647YS02001649    1.00   0.00  0.11  0.00  0.88  0.00  0.00  0.00  0.01  0.00
  YS02006553YS02006556    1.00   0.02  0.00  0.00  0.98  0.00  0.00  0.00  0.03  0.00
  YS02006556YS02006558    1.00   0.00  0.01  0.00  0.99  0.00  0.00  0.00  0.00  0.00
  YSB6556YSB1171          1.00   0.05  0.02  0.00  0.93  0.00  0.00  0.00  0.00  0.00
  YS02001907YS02006553    1.00   0.00  0.04  0.00  0.96  0.00  0.00  0.00  0.00  0.00
  YS02006558YS02006561    1.00   0.12  0.00  0.00  0.00  0.88  0.00  0.00  0.66  0.00
  YS02001633YS02163601    1.00   0.00  0.01  0.00  0.99  0.00  0.00  0.00  0.20  0.00
  YS02001644YS02001647    1.00   0.00  0.12  0.00  0.88  0.00  0.00  0.00  0.00  0.00
  YS02001745YS02001748    1.00   0.00  0.00  0.00  0.00  0.00  0.00  1.00  0.00  0.00
  YS02001748YS02001751    1.00   0.00  0.00  0.00  0.95  0.05  0.00  0.00  0.88  0.00
  YS02001751YS02001754    1.00   0.00  0.00  0.00  0.87  0.00  0.00  0.13  0.05  0.00
  YS02001754YS02001757    1.00   0.00  0.00  0.00  0.99  0.01  0.00  0.00  0.29  0.00
  YS02001882YS02001884    1.00   0.10  0.01  0.00  0.90  0.00  0.00  0.00  0.00  0.00
  YS02001884YS02001887    1.00   0.05  0.02  0.00  0.93  0.00  0.00  0.00  0.00  0.00
  YS02001890YS02001895    1.00   0.00  0.10  0.00  0.89  0.00  0.00  0.00  0.00  0.00
  YS02001895YS02001898    1.00   0.11  0.00  0.00  0.88  0.00  0.01  0.00  0.00  0.00
  YS02001898YS02001901    1.00   0.10  0.01  0.00  0.89  0.00  0.00  0.00  0.02  0.00
  YS02001901YS02001904    1.00   0.10  0.00  0.00  0.90  0.00  0.00  0.00  0.00  0.00
  YS02001904YS02001907    1.00   0.00  0.09  0.00  0.90  0.00  0.00  0.00  0.00  0.00
  YS02001887YS02001890    1.00   0.00  0.00  0.00  0.96  0.00  0.04  0.00  0.00  0.00
  YS02001652YS02001649    1.00   0.00  0.00  0.00  1.00  0.00  0.00  0.00  0.29  0.00
  YS02001655YS02001652    1.00   0.00  0.00  0.00  0.87  0.00  0.00  0.13  0.05  0.00
  YS02001658YS02001655    1.00   0.00  0.09  0.00  0.85  0.05  0.00  0.00  0.79  0.00
  YS02001661YS02001658    1.00   0.09  0.00  0.00  0.00  0.91  0.00  0.00  0.74  0.00
  YS02001664YS02001661    1.00   0.07  0.00  0.00  0.93  0.00  0.00  0.00  0.86  0.00
  YSB1154YSB6556          1.00   0.07  0.00  0.00  0.93  0.00  0.00  0.00  0.02  0.00
  YSB1174YSB1171          1.00   0.05  0.01  0.00  0.94  0.00  0.00  0.00  0.00  0.00
  YSB1171HS02004479       1.00   0.04  0.00  0.00  0.95  0.00  0.00  0.00  0.13  0.00
  HS02004881HS02006253    1.00   0.05  0.00  0.00  0.05  0.01  0.00  0.89  0.03  0.00
  YS02001793JiankangQianchi    1.00   0.00  0.00  0.00  0.07  0.92  0.00  0.00  0.06  0.00
  YS02001757CaochengTiaoxuchi    1.00   0.00  0.17  0.00  0.83  0.00  0.00  0.00  0.00  0.00
  WSF200WS02003060        1.00   0.00  0.10  0.00  0.90  0.00  0.00  0.00  0.75  0.00
  1                       1.00   0.00  0.00  0.00  0.00  1.00  0.00  0.00  0.34  0.00
  2                       1.00   1.00  0.00  0.00  0.00  0.00  0.00  0.00  0.00  0.00
  3                       1.00   0.85  0.00  0.00  0.00  0.15  0.00  0.00  0.69  0.00
  4                       1.00   1.00  0.00  0.00  0.00  0.00  0.00  0.00  0.00  0.00
  
  
  *************************
  Conduit Surcharge Summary
  *************************
  
  ----------------------------------------------------------------------------
                                                           Hours        Hours 
                         --------- Hours Full --------   Above Full   Capacity
  Conduit                Both Ends  Upstream  Dnstream   Normal Flow   Limited
  ----------------------------------------------------------------------------
  WS02006229WS02006228        0.01      0.01      0.01      0.06         0.01
  WS02006256WS02006235        4.82      4.82      7.26      1.27         0.01
  WS02006249WS02006248        0.01      0.01      0.01      0.12         0.01
  WS02006247WS02006245        0.01      0.01      0.01      0.37         0.01
  WS02006235WS02006234        0.01      0.01      0.01      4.22         0.01
  WS02006231WS02006230        0.01      0.01      0.01      5.33         0.01
  WS02006230WS02006229        0.01      0.01      0.01      5.51         0.01
  WS02006228WS02006109        0.01      0.01      0.01      0.67         0.01
  WS02006111WS02006112        0.01      0.01      0.04      0.01         0.01
  WS02004404WS02004405        0.01      0.01      0.01      4.99         0.01
  WS02003072WS02003073        0.01      0.01      0.01      1.28         0.01
  YS02001793JiankangQianchi        0.01      0.01      0.09      0.01         0.01
  
  
  ***************
  Pumping Summary
  ***************
  
  ---------------------------------------------------------------------------------------------------------
                                                  Min       Avg       Max     Total     Power    % Time Off
                        Percent   Number of      Flow      Flow      Flow    Volume     Usage    Pump Curve
  Pump                 Utilized   Start-Ups       LPS       LPS       LPS  10^6 ltr     Kw-hr    Low   High
  ---------------------------------------------------------------------------------------------------------
  CC-Pump-1                0.00           0      0.00      0.00      0.00     0.000      0.00    0.0    0.0
  CC-Pump-2               63.16           2      0.00     79.49    200.00     1.307      5.27    0.0  100.0
  JK-Pump-1               53.20           9      0.00     39.15     78.65     0.446      8.48    0.0    0.0
  JK-Pump-2               97.87           2      0.00     56.30    300.00     1.120     20.51    0.0    0.0
  XR-Pump-1               89.34           5      0.00     67.84     95.00     1.767     32.76    0.0    0.0
  XR-Pump-2                0.00           0      0.00      0.00      0.00     0.000      0.00    0.0    0.0
  XR-Pump-3              100.00           1      0.00     95.00     95.00     2.679     50.50    0.0    0.0
  XR-Pump-4               95.73           3      0.00     81.93     95.00     2.194     42.76    0.0    0.0
  

  Analysis begun on:  Wed Jan  5 21:39:11 2022
  Analysis ended on:  Wed Jan  5 21:39:12 2022
  Total elapsed time: 00:00:01