
  EPA STORM WATER MANAGEMENT MODEL - VERSION 5.1 (Build 5.3.0.dev0)
  --------------------------------------------------------------

  WARNING 04: minimum elevation drop used for Conduit WS02004404WS02004405
  WARNING 03: negative offset ignored for Link YS02001904YS02001907
  
  *********************************************************
  NOTE: The summary statistics displayed in this report are
  based on results found at every computational time step,  
  not just on results from each reporting time step.
  *********************************************************
  
  ****************
  Analysis Options
  ****************
  Flow Units ............... LPS
  Process Models:
    Rainfall/Runoff ........ YES
    RDII ................... NO
    Snowmelt ............... NO
    Groundwater ............ NO
    Flow Routing ........... YES
    Ponding Allowed ........ NO
    Water Quality .......... NO
  Infiltration Method ...... HORTON
  Flow Routing Method ...... DYNWAVE
  Surcharge Method ......... EXTRAN
  Starting Date ............ 08/28/2015 08:00:00
  Ending Date .............. 08/28/2015 15:50:00
  Antecedent Dry Days ...... 8.0
  Report Time Step ......... 00:01:00
  Wet Time Step ............ 00:01:00
  Dry Time Step ............ 00:01:00
  Routing Time Step ........ 5.00 sec
  Variable Time Step ....... YES
  Maximum Trials ........... 8
  Number of Threads ........ 4
  Head Tolerance ........... 0.001500 m
  
  
  **************************        Volume         Depth
  Runoff Quantity Continuity     hectare-m            mm
  **************************     ---------       -------
  Total Precipitation ......         3.047         6.671
  Evaporation Loss .........         0.000         0.000
  Infiltration Loss ........         0.769         1.684
  Surface Runoff ...........         1.365         2.989
  Final Storage ............         0.913         1.999
  Continuity Error (%) .....        -0.018
  
  
  **************************        Volume        Volume
  Flow Routing Continuity        hectare-m      10^6 ltr
  **************************     ---------     ---------
  Dry Weather Inflow .......         0.616         6.165
  Wet Weather Inflow .......         1.365        13.646
  Groundwater Inflow .......         0.000         0.000
  RDII Inflow ..............         0.000         0.000
  External Inflow ..........         0.102         1.024
  External Outflow .........         1.748        17.481
  Flooding Loss ............         0.024         0.243
  Evaporation Loss .........         0.000         0.000
  Exfiltration Loss ........         0.000         0.000
  Initial Stored Volume ....         0.076         0.761
  Final Stored Volume ......         0.513         5.130
  Continuity Error (%) .....        -5.830
  
  
  *************************
  Highest Continuity Errors
  *************************
  Node JK-storage (-30.64%)
  Node YS02001774 (28.58%)
  Node HS02004842 (26.05%)
  Node YS02001884 (20.54%)
  Node YSB1171 (6.05%)
  
  
  ***************************
  Time-Step Critical Elements
  ***************************
  Link WS02006252WS02006251 (64.36%)
  Link 3 (29.67%)
  Link WS02006280WS02006229 (1.69%)
  Link WS02006238WS02006235 (1.06%)
  
  
  ********************************
  Highest Flow Instability Indexes
  ********************************
  Link WS02006113WS02006111 (38)
  Link WS02006111WS02006112 (26)
  Link YS02006558YS02006561 (16)
  Link YS02164001YS02001641 (11)
  Link YS02001774YS02001770 (11)
  
  
  *************************
  Routing Time Step Summary
  *************************
  Minimum Time Step           :     0.45 sec
  Average Time Step           :     0.85 sec
  Maximum Time Step           :     5.00 sec
  Percent in Steady State     :    -0.00
  Average Iterations per Step :     3.50
  Percent Not Converging      :    16.48
  
  
  ***************************
  Subcatchment Runoff Summary
  ***************************
  
  ------------------------------------------------------------------------------------------------------------------------------
                            Total      Total      Total      Total     Imperv       Perv      Total       Total     Peak  Runoff
                           Precip      Runon       Evap      Infil     Runoff     Runoff     Runoff      Runoff   Runoff   Coeff
  Subcatchment                 mm         mm         mm         mm         mm         mm         mm    10^6 ltr      LPS
  ------------------------------------------------------------------------------------------------------------------------------
  sub0                       6.67       0.00       0.00       0.47       4.94       0.00       4.94        0.00     1.69   0.740
  sub1                       6.67       0.00       0.00       0.73       4.68       0.00       4.68        0.03     8.99   0.702
  sub2                       6.67       0.00       0.00       2.47       3.30       0.00       3.30        0.03     7.97   0.494
  sub3                       6.67       0.00       0.00       2.47       3.26       0.00       3.26        0.07    16.48   0.489
  sub4                       6.67       0.00       0.00       0.73       4.54       0.00       4.54        0.09    18.57   0.681
  sub5                       6.67       0.00       0.00       0.47       4.89       0.00       4.89        0.06    15.99   0.733
  sub7                       6.67       0.00       0.00       0.60       4.82       0.00       4.82        0.02     5.61   0.722
  sub8                       6.67       0.00       0.00       0.60       4.81       0.00       4.81        0.03     9.92   0.721
  sub9                       6.67       0.00       0.00       0.60       4.80       0.00       4.80        0.02     7.36   0.720
  sub10                      6.67       0.00       0.00       0.53       4.85       0.00       4.85        0.05    15.94   0.726
  sub11                      6.67       0.00       0.00       0.53       4.86       0.00       4.86        0.06    18.64   0.729
  sub12                      6.67       0.00       0.00       0.87       4.62       0.00       4.62        0.04    15.69   0.692
  sub14                      6.67       0.00       0.00       0.60       4.80       0.00       4.80        0.05    14.38   0.720
  sub15                      6.67       0.00       0.00       2.00       3.69       0.00       3.69        0.06    19.52   0.553
  sub16                      6.67       0.00       0.00       2.20       3.55       0.00       3.55        0.04    13.83   0.532
  sub17                      6.67       0.00       0.00       2.13       3.60       0.00       3.60        0.03    11.18   0.540
  sub22                      6.67       0.00       0.00       2.87       3.01       0.00       3.01        0.19    63.78   0.452
  sub23                      6.67       0.00       0.00       2.47       3.33       0.00       3.33        0.16    54.27   0.500
  sub60                      6.67       0.00       0.00       0.80       3.35       0.00       3.35        1.02    97.43   0.502
  sub61                      6.67       0.00       0.00       1.13       3.55       0.00       3.55        1.09   121.21   0.532
  sub62                      6.67       0.00       0.00       0.53       3.82       0.00       3.82        1.17   124.17   0.572
  sub63                      6.67       0.00       0.00       1.93       3.15       0.00       3.15        0.95   112.77   0.472
  sub64                      6.67       0.00       0.00       1.00       3.20       0.00       3.20        0.97    92.59   0.480
  sub65                      6.67       0.00       0.00       0.87       3.25       0.00       3.25        1.00    93.99   0.486
  sub66                      6.67       0.00       0.00       1.93       2.79       0.00       2.79        0.85    84.64   0.418
  sub67                      6.67       0.00       0.00       0.53       4.17       0.00       4.17        1.29   158.23   0.624
  sub68                      6.67       0.00       0.00       0.93       3.77       0.00       3.77        1.16   133.74   0.565
  sub69                      6.67       0.00       0.00       1.00       4.04       0.00       4.04        0.94   131.76   0.605
  sub70                      6.67       4.12       0.00       3.67       5.04       0.00       5.04        1.15   109.50   0.467
  sub71                      6.67       0.00       0.00       0.53       3.66       0.00       3.66        0.86    86.93   0.549
  sub72                      6.67       0.00       0.00       0.47       2.64       0.00       2.64        0.54    41.54   0.395
  sub73                      6.67       4.91       0.00       3.94       5.20       0.00       5.20        1.22    94.59   0.449
  sub74                      6.67       0.00       0.00       5.00       1.21       0.00       1.21        0.49    73.30   0.182
  
  
  ******************
  Node Depth Summary
  ******************
  
  ---------------------------------------------------------------------------------
                                 Average  Maximum  Maximum  Time of Max    Reported
                                   Depth    Depth      HGL   Occurrence   Max Depth
  Node                 Type       Meters   Meters   Meters  days hr:min      Meters
  ---------------------------------------------------------------------------------
  WS02001211           JUNCTION     0.66     0.72     5.55     0  02:59        0.72
  WS02001212           JUNCTION     0.38     0.44     5.50     0  02:57        0.44
  WS02001213           JUNCTION     0.61     0.69     5.45     0  02:57        0.69
  WS02003069           JUNCTION     0.44     0.53     5.12     0  02:34        0.53
  WS02003072           JUNCTION     0.50     0.60     4.97     0  02:34        0.60
  WS02003073           JUNCTION     0.30     0.36     4.43     0  02:35        0.36
  WS02003060           JUNCTION     0.39     0.47     5.40     0  02:33        0.47
  WS02003066           JUNCTION     0.23     0.30     5.85     0  02:36        0.30
  WS02003059           JUNCTION     0.67     0.75     5.44     0  02:56        0.75
  WS02003067           JUNCTION     0.57     0.70     6.02     0  02:36        0.70
  WS02004401           JUNCTION     0.67     0.85     6.85     0  02:32        0.85
  WS02004402           JUNCTION     0.70     0.88     6.84     0  02:32        0.88
  WS02004403           JUNCTION     0.72     0.89     6.82     0  02:33        0.89
  WS02004404           JUNCTION     0.80     0.96     6.81     0  02:33        0.96
  WS02004406           JUNCTION     0.80     0.96     6.79     0  02:33        0.96
  WS02004409           JUNCTION     0.49     0.67     6.44     0  02:35        0.67
  WS02004410           JUNCTION     0.51     0.68     6.40     0  02:36        0.68
  WS02004411           JUNCTION     0.52     0.69     6.37     0  02:36        0.69
  WS02004412           JUNCTION     0.54     0.70     6.34     0  02:36        0.70
  WS02004413           JUNCTION     0.70     0.86     6.33     0  02:36        0.86
  WS02004405           JUNCTION     0.79     0.96     6.81     0  02:33        0.96
  WS02006109           JUNCTION     0.75     0.97     7.58     0  02:30        0.97
  WS02006110           JUNCTION     0.74     0.92     7.50     0  02:30        0.92
  WS02006111           JUNCTION     0.22     0.29     6.99     0  02:30        0.29
  WS02006112           JUNCTION     0.84     1.06     6.94     0  02:33        1.04
  WS02006113           JUNCTION     0.34     0.45     7.34     0  02:29        0.45
  WS02006115           JUNCTION     0.56     0.75     6.89     0  02:33        0.75
  WS02006116           JUNCTION     0.64     0.83     6.87     0  02:32        0.83
  WS02006230           JUNCTION     0.71     1.00     7.75     0  02:31        1.00
  WS02006231           JUNCTION     0.47     0.67     7.79     0  02:31        0.67
  WS02006232           JUNCTION     0.61     0.79     7.83     0  02:31        0.79
  WS02006234           JUNCTION     0.52     0.72     7.88     0  02:32        0.72
  WS02006235           JUNCTION     0.56     0.75     7.91     0  02:32        0.75
  WS02006238           JUNCTION     0.58     0.78     7.92     0  02:32        0.78
  WS02006240           JUNCTION     0.47     0.67     7.97     0  02:33        0.67
  WS02006242           JUNCTION     0.52     0.73     7.99     0  02:34        0.73
  WS02006243           JUNCTION     0.40     0.60     8.02     0  02:34        0.60
  WS02006245           JUNCTION     0.38     0.56     8.04     0  02:34        0.56
  WS02006247           JUNCTION     0.40     0.56     8.06     0  02:34        0.56
  WS02006248           JUNCTION     0.34     0.49     8.08     0  02:34        0.49
  WS02006249           JUNCTION     0.38     0.51     8.11     0  02:35        0.51
  WS02006239           JUNCTION     0.53     0.74     7.95     0  02:33        0.74
  WS02006251           JUNCTION     0.36     0.48     8.15     0  02:35        0.48
  WS02006252           JUNCTION     0.31     0.35     8.59     0  02:18        0.35
  WS02006253           JUNCTION     0.39     0.51     8.15     0  02:35        0.51
  WS02006256           JUNCTION     1.04     1.21     8.14     0  02:30        1.21
  WS02004138           JUNCTION     0.15     0.17     7.42     0  00:30        0.17
  WS02004407           JUNCTION     0.22     0.30     6.61     0  02:33        0.30
  WS02006228           JUNCTION     0.74     1.00     7.65     0  02:30        1.00
  WS02006229           JUNCTION     0.72     1.00     7.69     0  02:30        1.00
  WS02006280           JUNCTION     0.06     0.16     8.43     0  02:17        0.16
  WS02006284           JUNCTION     0.35     0.50     8.90     0  02:17        0.50
  WS02006287           JUNCTION     0.08     0.23     9.19     0  02:16        0.23
  WSF200               JUNCTION     0.22     0.31     5.54     0  02:35        0.31
  HS02004901           JUNCTION     0.11     0.25    10.07     0  02:14        0.25
  HS02004881           JUNCTION     0.01     0.03     9.06     0  02:16        0.03
  HS02004876           JUNCTION     0.04     0.11     9.14     0  02:13        0.11
  HS02004870           JUNCTION     0.01     0.05     9.33     0  02:17        0.05
  HS02004862           JUNCTION     0.01     0.05     9.44     0  02:18        0.05
  HS02004856           JUNCTION     0.07     0.11     9.53     0  02:17        0.11
  HS02004852           JUNCTION     0.01     0.03     9.54     0  02:18        0.03
  HS02004848           JUNCTION     0.01     0.03     9.63     0  02:17        0.03
  HS02004842           JUNCTION     0.33     0.36     9.63     0  02:17        0.36
  HS02004837           JUNCTION     0.03     0.05     9.63     0  02:17        0.05
  HS02004830           JUNCTION     0.04     0.07     9.53     0  02:17        0.07
  HS02004824           JUNCTION     0.02     0.04     9.45     0  02:20        0.04
  HS02004817           JUNCTION     0.42     0.54     9.39     0  02:17        0.54
  HS02004807           JUNCTION     0.11     0.22     9.39     0  02:17        0.22
  HS02004802           JUNCTION     0.15     0.25     9.38     0  02:17        0.25
  HS02004799           JUNCTION     0.10     0.28     9.49     0  02:15        0.28
  HS02004792           JUNCTION     0.02     0.11     9.63     0  02:14        0.11
  HS02004788           JUNCTION     0.02     0.08     9.98     0  02:15        0.08
  HS02004785           JUNCTION     0.04     0.15    10.05     0  02:15        0.15
  HS02004777           JUNCTION     0.13     0.27    10.07     0  02:14        0.27
  HS02004770           JUNCTION     0.10     0.24    10.07     0  02:14        0.24
  HS02004480           JUNCTION     0.07     0.22     9.46     0  02:15        0.22
  HS02004479           JUNCTION     0.10     0.26     9.46     0  02:15        0.26
  HS02004478           JUNCTION     0.05     0.14     9.37     0  02:16        0.14
  YS02001745           JUNCTION     0.32     0.56     8.08     0  05:44        0.56
  YS02001748           JUNCTION     0.70     1.00     8.08     0  05:44        0.99
  YS02001751           JUNCTION     0.88     1.30     8.18     0  04:02        1.18
  YS02001754           JUNCTION     1.13     1.58     8.19     0  03:33        1.44
  YS02001762           JUNCTION     1.32     1.65     8.05     0  06:06        1.65
  YS02001765           JUNCTION     1.28     1.61     8.06     0  06:06        1.60
  YS02001767           JUNCTION     1.24     1.58     8.07     0  03:45        1.56
  YS02001770           JUNCTION     1.24     1.66     8.16     0  03:45        1.56
  YS02001774           JUNCTION     1.30     1.76     8.19     0  03:45        1.63
  YS02001779           JUNCTION     1.06     1.53     8.22     0  03:45        1.41
  YS02001882           JUNCTION     0.31     0.52     7.23     0  02:54        0.52
  YS02001884           JUNCTION     0.40     0.62     7.23     0  02:54        0.62
  YS02001759           JUNCTION     1.36     1.68     8.05     0  05:35        1.68
  YS02001887           JUNCTION     0.48     0.70     7.23     0  02:54        0.70
  YS02001890           JUNCTION     0.51     0.73     7.23     0  02:55        0.73
  YS02001898           JUNCTION     0.28     0.48     7.22     0  02:54        0.48
  YS02001901           JUNCTION     0.40     0.61     7.22     0  02:52        0.61
  YS02001904           JUNCTION     0.38     0.58     7.21     0  02:56        0.58
  YS02001907           JUNCTION     0.71     0.92     7.21     0  02:52        0.92
  YS02001910           JUNCTION     0.50     0.71     7.21     0  02:55        0.71
  YS02001915           JUNCTION     0.30     0.49     7.21     0  02:55        0.49
  YS02001918           JUNCTION     0.09     0.14     7.21     0  02:54        0.14
  YS02001619           JUNCTION     0.84     1.48     8.41     0  04:46        1.15
  YS02001629           JUNCTION     1.19     1.61     8.16     0  04:46        1.54
  YS02001641           JUNCTION     1.29     1.66     8.09     0  04:46        1.62
  YS02001644           JUNCTION     1.30     1.64     8.07     0  04:46        1.62
  YS02001652           JUNCTION     1.14     1.94     8.54     0  03:47        1.49
  YS02001655           JUNCTION     0.91     2.08     8.93     0  03:47        1.30
  YS02001920           JUNCTION     0.18     0.23     7.24     0  02:59        0.23
  YS02001923           JUNCTION     0.07     0.09     7.35     0  03:01        0.09
  YS02001926           JUNCTION     0.15     0.19     7.64     0  03:01        0.19
  YS02001929           JUNCTION     0.07     0.10     7.79     0  03:01        0.10
  YS02001658           JUNCTION     0.64     0.92     8.06     0  05:49        0.92
  YS02001661           JUNCTION     0.42     0.65     8.05     0  05:48        0.64
  YS02001664           JUNCTION     0.08     0.13     8.05     0  02:44        0.13
  YS02001622           JUNCTION     0.86     1.46     8.37     0  04:46        1.17
  YS02001633           JUNCTION     1.28     1.68     8.14     0  04:46        1.61
  YS02001649           JUNCTION     1.33     1.81     8.20     0  03:47        1.65
  YS02001757           JUNCTION     1.46     1.79     8.05     0  05:55        1.78
  YS02001895           JUNCTION     0.27     0.48     7.22     0  02:53        0.48
  YS02001625           JUNCTION     1.14     1.58     8.18     0  04:46        1.47
  YS02163301           JUNCTION     1.22     1.63     8.15     0  04:46        1.56
  YS02163601           JUNCTION     1.33     1.72     8.12     0  04:46        1.66
  YS02164001           JUNCTION     1.27     1.65     8.11     0  04:46        1.60
  YS02001647           JUNCTION     1.13     1.54     8.15     0  03:47        1.43
  YSB1154              JUNCTION     0.24     0.41     9.46     0  02:15        0.41
  YSB6556              JUNCTION     0.14     0.29     9.46     0  02:15        0.29
  YSB1174              JUNCTION     0.19     0.35     9.46     0  02:15        0.35
  YSB1171              JUNCTION     0.39     0.56     9.46     0  02:15        0.56
  YS02006553           JUNCTION     0.71     0.93     7.21     0  02:53        0.93
  YS02006561           JUNCTION     0.15     0.26     6.92     0  02:48        0.26
  YS02006556           JUNCTION     0.68     0.90     7.21     0  02:53        0.89
  YS02006558           JUNCTION     0.73     0.94     7.21     0  02:53        0.94
  YS02001783           JUNCTION     0.27     0.65     6.79     0  03:15        0.63
  YS02001784           JUNCTION     0.30     0.71     6.78     0  03:16        0.69
  YS02001786           JUNCTION     0.26     0.71     6.74     0  03:16        0.70
  YS02001788           JUNCTION     0.20     0.73     6.71     0  03:15        0.71
  YS02001790           JUNCTION     0.25     1.96     7.60     0  03:13        1.02
  YS02001791           JUNCTION     0.19     2.30     7.77     0  03:12        1.16
  YS02001793           JUNCTION     0.19     2.23     7.07     0  03:09        1.78
  WS02004139           JUNCTION     0.60     0.66     5.57     0  02:58        0.66
  WSC                  OUTFALL      0.30     0.36     1.03     0  02:35        0.36
  3                    OUTFALL      0.09     0.20     6.20     0  02:30        0.20
  4                    OUTFALL      0.00     0.01     7.01     0  02:35        0.01
  5                    OUTFALL      0.00     0.00     5.00     0  00:00        0.00
  JK-storage           STORAGE      0.76     5.80     6.60     0  03:14        5.80
  CC-storage           STORAGE      0.70     1.01     8.01     0  05:48        1.01
  XR-storage           STORAGE      6.36     7.72     5.72     0  04:06        7.72
  
  
  *******************
  Node Inflow Summary
  *******************
  
  -------------------------------------------------------------------------------------------------
                                  Maximum  Maximum                  Lateral       Total        Flow
                                  Lateral    Total  Time of Max      Inflow      Inflow     Balance
                                   Inflow   Inflow   Occurrence      Volume      Volume       Error
  Node                 Type           LPS      LPS  days hr:min    10^6 ltr    10^6 ltr     Percent
  -------------------------------------------------------------------------------------------------
  WS02001211           JUNCTION      7.35   292.98     0  03:09       0.207        7.13       0.544
  WS02001212           JUNCTION      0.00   293.34     0  03:09           0        7.09       0.284
  WS02001213           JUNCTION      0.00   293.70     0  03:10           0        7.07       0.337
  WS02003069           JUNCTION      0.32   807.27     0  02:33     0.00902        14.5       0.215
  WS02003072           JUNCTION      0.00   807.02     0  02:34           0        14.4       0.260
  WS02003073           JUNCTION      1.82   808.99     0  02:34      0.0514        14.5       0.295
  WS02003060           JUNCTION     16.53   806.66     0  02:32       0.466        14.5       0.203
  WS02003066           JUNCTION      0.00   535.26     0  02:37           0        7.04       0.064
  WS02003059           JUNCTION      0.00   294.38     0  03:10           0        7.05       0.589
  WS02003067           JUNCTION      0.00   535.18     0  02:36           0        7.05       0.135
  WS02004401           JUNCTION      0.00   538.19     0  02:31           0        7.28       0.301
  WS02004402           JUNCTION      0.00   537.97     0  02:32           0        7.26       0.283
  WS02004403           JUNCTION      0.00   537.62     0  02:32           0        7.24       0.257
  WS02004404           JUNCTION      0.16   537.62     0  02:33     0.00457        7.23       0.194
  WS02004406           JUNCTION      0.00   537.67     0  02:33           0        7.19       0.472
  WS02004409           JUNCTION      0.00   537.29     0  02:33           0        7.15       0.235
  WS02004410           JUNCTION      0.00   535.94     0  02:35           0        7.14       0.264
  WS02004411           JUNCTION      0.00   535.56     0  02:35           0        7.12       0.271
  WS02004412           JUNCTION      0.00   535.41     0  02:36           0         7.1       0.292
  WS02004413           JUNCTION      0.00   535.36     0  02:36           0        7.08       0.431
  WS02004405           JUNCTION      0.04   537.47     0  02:33     0.00107        7.21       0.289
  WS02006109           JUNCTION      1.23   532.67     0  02:31      0.0347        7.38       0.301
  WS02006110           JUNCTION      0.00   532.67     0  02:31           0        7.36       0.274
  WS02006111           JUNCTION      0.00   552.88     0  02:30           0        7.33       0.063
  WS02006112           JUNCTION     11.18   544.80     0  02:29      0.0309        7.35       0.401
  WS02006113           JUNCTION      0.00   533.12     0  02:30           0        7.34       0.137
  WS02006115           JUNCTION      0.00   544.74     0  02:31           0        7.32       0.283
  WS02006116           JUNCTION      0.00   539.64     0  02:31           0         7.3       0.268
  WS02006230           JUNCTION     10.28   340.05     0  02:49        0.29        6.36       0.232
  WS02006231           JUNCTION      0.00   328.74     0  02:47           0        6.08       0.160
  WS02006232           JUNCTION      0.00   328.66     0  02:47           0         6.1       0.270
  WS02006234           JUNCTION      0.00   327.96     0  02:45           0         6.1       0.134
  WS02006235           JUNCTION      0.00   327.86     0  02:47           0        6.15       0.181
  WS02006238           JUNCTION      0.00   253.24     0  03:10           0        4.03       0.198
  WS02006240           JUNCTION      0.00   242.82     0  02:40           0        4.02       0.303
  WS02006242           JUNCTION      0.00   241.57     0  02:40           0        4.02       0.365
  WS02006243           JUNCTION      0.00   239.56     0  02:40           0        4.02       0.146
  WS02006245           JUNCTION      0.00   240.09     0  02:23           0        4.02       0.218
  WS02006247           JUNCTION      0.00   242.63     0  02:23           0        4.03       0.172
  WS02006248           JUNCTION      0.00   244.06     0  02:24           0        4.03       0.107
  WS02006249           JUNCTION      0.00   245.68     0  02:22           0        4.04       0.251
  WS02006239           JUNCTION      0.00   245.15     0  03:10           0        4.02       0.298
  WS02006251           JUNCTION      0.08   247.90     0  02:19     0.00217        4.05       0.217
  WS02006252           JUNCTION      0.00   200.00     0  02:18           0        3.88       0.011
  WS02006253           JUNCTION      1.69    50.37     0  02:16       0.004       0.177       2.114
  WS02006256           JUNCTION      0.00   600.00     0  03:30           0        5.22       0.062
  WS02004138           JUNCTION      0.00   285.00     0  00:30           0        6.95       0.055
  WS02004407           JUNCTION      0.00   537.39     0  02:33           0        7.16       0.107
  WS02006228           JUNCTION      0.00   531.44     0  02:31           0        7.36       0.207
  WS02006229           JUNCTION      0.00   531.35     0  02:30           0        7.37       0.176
  WS02006280           JUNCTION      0.00   254.26     0  02:17           0        1.03       0.007
  WS02006284           JUNCTION      0.10   254.25     0  02:16      0.0027        1.03       0.105
  WS02006287           JUNCTION      0.00   254.11     0  02:16           0        1.03       0.071
  WSF200               JUNCTION      0.00   535.33     0  02:37           0        7.03       0.061
  HS02004901           JUNCTION     13.83    13.83     0  02:09      0.0371      0.0373       4.945
  HS02004881           JUNCTION      5.61    49.06     0  02:16      0.0162       0.172       0.207
  HS02004876           JUNCTION      8.99    43.76     0  02:16      0.0311       0.156       0.341
  HS02004870           JUNCTION      9.92    34.94     0  02:16      0.0307       0.125       0.085
  HS02004862           JUNCTION      8.17    25.65     0  02:17      0.0363      0.0944       0.180
  HS02004856           JUNCTION      7.36    17.53     0  02:16      0.0231      0.0595       2.474
  HS02004852           JUNCTION      0.00    10.62     0  02:17           0      0.0365       0.142
  HS02004848           JUNCTION     16.48    16.48     0  02:20      0.0734      0.0734       0.060
  HS02004842           JUNCTION      0.00     6.44     0  02:29           0      0.0499      35.223
  HS02004837           JUNCTION     22.29    27.65     0  02:16       0.232       0.269       0.302
  HS02004830           JUNCTION      0.15    27.78     0  02:17     0.00423        0.26       0.477
  HS02004824           JUNCTION     18.62    46.16     0  02:20      0.0961       0.355       0.152
  HS02004817           JUNCTION      0.60    46.76     0  02:20      0.0169       0.371       4.704
  HS02004807           JUNCTION     18.64    63.78     0  02:18      0.0565       0.411       1.040
  HS02004802           JUNCTION      0.00    64.20     0  02:19           0       0.407       1.009
  HS02004799           JUNCTION     14.38   162.39     0  02:14      0.0457       0.544       0.421
  HS02004792           JUNCTION     64.06   148.26     0  02:14       0.198       0.499       0.082
  HS02004788           JUNCTION     21.19    86.25     0  02:15       0.111       0.302       0.130
  HS02004785           JUNCTION      0.15    65.39     0  02:14     0.00423       0.193       0.251
  HS02004777           JUNCTION      0.03    65.71     0  02:13    0.000846       0.194       2.749
  HS02004770           JUNCTION     54.27    66.84     0  02:11       0.159       0.194       1.618
  HS02004480           JUNCTION      0.00   191.61     0  02:15           0       0.637       0.117
  HS02004479           JUNCTION      0.00    29.76     0  02:16           0       0.105       0.699
  HS02004478           JUNCTION      0.00   254.08     0  02:16           0        1.03       0.060
  YS02001745           JUNCTION     97.44   166.56     0  04:51        1.01        1.28       0.401
  YS02001748           JUNCTION      0.04   222.49     0  03:33     0.00127        1.29       1.308
  YS02001751           JUNCTION      0.01   242.56     0  03:39     0.00031        1.01       2.058
  YS02001754           JUNCTION      0.26   156.87     0  03:33     0.00733       0.982       2.427
  YS02001762           JUNCTION      0.00   138.81     0  02:59           0        1.11       1.920
  YS02001765           JUNCTION      0.00   144.09     0  02:33           0        1.11       2.210
  YS02001767           JUNCTION      0.54   133.03     0  02:39      0.0151        1.13       3.256
  YS02001770           JUNCTION    124.32   148.02     0  03:00        1.18         1.2       2.677
  YS02001774           JUNCTION      0.00    49.40     0  02:13           0      0.0881      40.018
  YS02001779           JUNCTION      0.01    42.47     0  03:34    0.000141      0.0384      62.293
  YS02001882           JUNCTION      0.00     4.74     0  02:05           0     0.00622      39.809
  YS02001884           JUNCTION      0.00    13.70     0  02:05           0      0.0247      25.856
  YS02001759           JUNCTION    121.25   259.00     0  02:59         1.1        2.17       1.051
  YS02001887           JUNCTION    158.68   158.68     0  02:42         1.3        1.31       0.566
  YS02001890           JUNCTION      0.00   157.99     0  02:49           0        1.28       0.633
  YS02001898           JUNCTION      0.00   157.69     0  02:49           0        1.27       0.187
  YS02001901           JUNCTION      0.00   157.94     0  02:49           0        1.27       0.453
  YS02001904           JUNCTION      0.00   157.81     0  02:47           0        1.27       0.421
  YS02001907           JUNCTION      0.00   287.15     0  02:48           0        2.73       0.826
  YS02001910           JUNCTION      0.00   132.20     0  03:01           0        1.47       0.712
  YS02001915           JUNCTION     86.94   131.39     0  02:59       0.865        1.48       0.326
  YS02001918           JUNCTION      0.00    44.55     0  03:03           0       0.615       0.205
  YS02001619           JUNCTION     84.64    84.64     0  02:58       0.854       0.854       1.407
  YS02001629           JUNCTION      0.00   165.77     0  03:43           0       0.783       3.620
  YS02001641           JUNCTION      0.00   185.31     0  02:58           0        1.68       1.262
  YS02001644           JUNCTION     92.63   278.67     0  02:58       0.974        2.63       1.001
  YS02001652           JUNCTION      0.00   181.62     0  02:51           0        0.91       2.445
  YS02001655           JUNCTION      0.15   310.36     0  03:47     0.00434        0.96       2.466
  YS02001920           JUNCTION      2.87    44.40     0  03:02      0.0809       0.617       0.357
  YS02001923           JUNCTION      0.04    41.53     0  03:01     0.00106       0.537       0.063
  YS02001926           JUNCTION      0.05    41.57     0  03:01     0.00147       0.538       0.445
  YS02001929           JUNCTION     41.54    41.54     0  03:01       0.537       0.537       0.062
  YS02001658           JUNCTION      0.00   259.15     0  03:42           0        1.13       1.597
  YS02001661           JUNCTION      0.00   199.86     0  03:45           0        1.11       0.883
  YS02001664           JUNCTION    112.77   112.77     0  02:44       0.954       0.955       0.012
  YS02001622           JUNCTION      0.00   110.56     0  03:45           0       0.849       3.795
  YS02001633           JUNCTION     94.19   190.77     0  02:58           1        1.74       1.857
  YS02001649           JUNCTION      0.00   407.64     0  03:02           0        3.44       1.076
  YS02001757           JUNCTION      0.00   716.45     0  02:58           0        6.47       1.439
  YS02001895           JUNCTION      0.00   157.76     0  02:48           0        1.28       0.309
  YS02001625           JUNCTION      0.00   168.23     0  03:43           0       0.824       4.968
  YS02163301           JUNCTION      0.00   111.22     0  02:38           0       0.761       3.208
  YS02163601           JUNCTION      0.11   187.91     0  02:58      0.0031         1.7       1.794
  YS02164001           JUNCTION      0.00   187.01     0  02:58           0        1.68       1.198
  YS02001647           JUNCTION      0.00   279.27     0  03:00           0        2.58       1.024
  YSB1154              JUNCTION     15.99    15.99     0  02:14      0.0554      0.0567       2.612
  YSB6556              JUNCTION      0.00    15.99     0  02:16           0      0.0577       2.210
  YSB1174              JUNCTION     15.69    15.69     0  02:09      0.0403      0.0413       3.206
  YSB1171              JUNCTION      0.00    29.76     0  02:15           0       0.105       6.437
  YS02006553           JUNCTION      0.00   289.76     0  02:48           0        2.72       0.535
  YS02006561           JUNCTION      0.00   440.32     0  02:48           0        3.85       0.013
  YS02006556           JUNCTION      0.00   288.17     0  02:48           0        2.73       0.387
  YS02006558           JUNCTION    134.62   425.18     0  02:48        1.18        3.88       0.125
  YS02001783           JUNCTION      0.00   420.72     0  02:48           0        3.85       0.043
  YS02001784           JUNCTION      1.06   421.06     0  02:48      0.0299        3.88       0.070
  YS02001786           JUNCTION      0.06   420.49     0  02:48     0.00159        3.88       0.069
  YS02001788           JUNCTION      0.07   420.37     0  02:48       0.002        3.88       0.040
  YS02001790           JUNCTION      0.15   435.79     0  03:27     0.00437        3.88       0.045
  YS02001791           JUNCTION      0.00   460.40     0  03:28           0        3.88       0.023
  YS02001793           JUNCTION      0.00   521.79     0  03:10           0        3.88       0.008
  WS02004139           JUNCTION      0.32   285.35     0  00:30     0.00905        6.96       0.528
  WSC                  OUTFALL       0.00   808.89     0  02:35           0        14.4       0.000
  3                    OUTFALL       0.00   504.81     0  02:30           0        3.06       0.000
  4                    OUTFALL       0.00     0.67     0  02:35           0    0.000182       0.000
  5                    OUTFALL       0.00     0.00     0  00:00           0           0       0.000 ltr
  JK-storage           STORAGE       0.00   682.35     0  03:09           0        4.03     -23.451
  CC-storage           STORAGE       0.00   716.09     0  02:58           0        6.38       0.812
  XR-storage           STORAGE     357.32   357.32     0  02:56        7.35        7.95      -0.000
  
  
  **********************
  Node Surcharge Summary
  **********************
  
  Surcharging occurs when water rises above the top of the highest conduit.
  ---------------------------------------------------------------------
                                               Max. Height   Min. Depth
                                   Hours       Above Crown    Below Rim
  Node                 Type      Surcharged         Meters       Meters
  ---------------------------------------------------------------------
  WS02006109           JUNCTION        0.87          0.147        1.673
  WS02006110           JUNCTION        0.18          0.009        1.841
  WS02006112           JUNCTION        0.41          0.058        1.622
  WS02006232           JUNCTION        0.67          0.092        1.388
  WS02006234           JUNCTION        0.08          0.003        1.237
  WS02006235           JUNCTION        0.29          0.040        1.250
  WS02006238           JUNCTION        0.38          0.056        1.374
  WS02006228           JUNCTION        0.86          0.174        2.026
  YS02001751           JUNCTION        3.50          0.302        0.898
  YS02001754           JUNCTION        4.30          0.532        0.618
  YS02001762           JUNCTION        5.32          0.652        0.498
  YS02001765           JUNCTION        5.27          0.607        0.493
  YS02001767           JUNCTION        5.23          0.582        0.448
  YS02001770           JUNCTION        5.16          0.632        0.288
  YS02001774           JUNCTION        5.31          0.764        0.286
  YS02001779           JUNCTION        4.19          0.532        0.148
  YS02001759           JUNCTION        5.35          0.685        0.525
  YS02001619           JUNCTION        2.78          0.477        0.133
  YS02001629           JUNCTION        2.82          0.226        0.244
  YS02001641           JUNCTION        5.30          0.658        0.442
  YS02001644           JUNCTION        5.30          0.640        0.280
  YS02001652           JUNCTION        4.51          0.912        0.218
  YS02001655           JUNCTION        3.73          1.080        0.120
  YS02001622           JUNCTION        3.21          0.465        0.155
  YS02001633           JUNCTION        5.26          0.663        0.397
  YS02001649           JUNCTION        5.33          0.815        0.235
  YS02001757           JUNCTION        5.43          0.786        0.424
  YS02001625           JUNCTION        4.92          0.578        0.202
  YS02163301           JUNCTION        5.20          0.631        0.399
  YS02163601           JUNCTION        5.34          0.720        0.360
  YS02164001           JUNCTION        5.27          0.650        0.450
  YS02001647           JUNCTION        4.76          0.545        0.355
  YS02001790           JUNCTION        0.22          1.157        0.000
  YS02001791           JUNCTION        0.27          1.501        0.419
  YS02001793           JUNCTION        0.34          1.233        1.367
  
  
  *********************
  Node Flooding Summary
  *********************
  
  Flooding refers to all water that overflows a node, whether it ponds or not.
  --------------------------------------------------------------------------
                                                             Total   Maximum
                                 Maximum   Time of Max       Flood    Ponded
                        Hours       Rate    Occurrence      Volume     Depth
  Node                 Flooded       LPS   days hr:min    10^6 ltr    Meters
  --------------------------------------------------------------------------
  YS02001790              0.01    119.49      0  03:13       0.000     0.000
  JK-storage              0.12    204.15      0  03:16       0.046     0.000
  XR-storage              1.19     89.00      0  04:40       0.197     0.000
  
  
  **********************
  Storage Volume Summary
  **********************
  
  --------------------------------------------------------------------------------------------------
                         Average     Avg  Evap Exfil       Maximum     Max    Time of Max    Maximum
                          Volume    Pcnt  Pcnt  Pcnt        Volume    Pcnt     Occurrence    Outflow
  Storage Unit           1000 m3    Full  Loss  Loss       1000 m3    Full    days hr:min        LPS
  --------------------------------------------------------------------------------------------------
  JK-storage               0.038      13     0     0         0.291     100       0  03:14     600.00
  CC-storage               1.960      12     0     0         2.815      18       0  05:48     200.00
  XR-storage               0.763      82     0     0         0.926     100       0  04:06     285.00
  
  
  ***********************
  Outfall Loading Summary
  ***********************
  
  -----------------------------------------------------------
                         Flow       Avg       Max       Total
                         Freq      Flow      Flow      Volume
  Outfall Node           Pcnt       LPS       LPS    10^6 ltr
  -----------------------------------------------------------
  WSC                   99.99    583.14    808.89      14.420
  3                     86.26    170.35    504.81       3.061
  4                      2.40      0.39      0.67       0.000
  5                      0.00      0.00      0.00       0.000
  -----------------------------------------------------------
  System                47.16    753.88   1211.18      17.481
  
  
  ********************
  Link Flow Summary
  ********************
  
  -----------------------------------------------------------------------------
                                 Maximum  Time of Max   Maximum    Max/    Max/
                                  |Flow|   Occurrence   |Veloc|    Full    Full
  Link                 Type          LPS  days hr:min     m/sec    Flow   Depth
  -----------------------------------------------------------------------------
  WS02003066WSF200     CONDUIT    535.33     0  02:37      2.76    0.09    0.23
  WS02006287WS02006284 CONDUIT    254.15     0  02:16      1.74    0.12    0.24
  WS02006284WS02006280 CONDUIT    254.26     0  02:17      1.98    0.11    0.22
  WS02006280WS02006229 CONDUIT    254.26     0  02:17      3.19    0.05    0.16
  WS02006229WS02006228 CONDUIT    531.44     0  02:31      1.06    1.76    1.00
  WS02006256WS02006235 CONDUIT    166.25     0  00:01      2.58    1.76    1.00
  WS02006253WS02006251 CONDUIT     50.26     0  02:15      0.53    0.15    0.70
  WS02006252WS02006251 CONDUIT    200.64     0  02:18      1.97    0.74    0.76
  WS02006251WS02006249 CONDUIT    245.68     0  02:22      0.99    0.71    0.71
  WS02006249WS02006248 CONDUIT    244.06     0  02:24      1.08    1.34    0.70
  WS02006248WS02006247 CONDUIT    242.63     0  02:23      1.04    0.53    0.75
  WS02006247WS02006245 CONDUIT    240.09     0  02:23      0.99    1.90    0.79
  WS02006245WS02006243 CONDUIT    239.56     0  02:40      1.03    0.71    0.82
  WS02006243WS02006242 CONDUIT    241.57     0  02:40      0.83    0.52    0.92
  WS02006242WS02006240 CONDUIT    242.82     0  02:40      0.77    0.96    0.97
  WS02006240WS02006239 CONDUIT    245.15     0  03:10      0.84    0.77    0.98
  WS02006239WS02006238 CONDUIT    253.24     0  03:10      0.77    0.81    1.00
  WS02006238WS02006235 CONDUIT    258.02     0  03:10      1.25    0.58    1.00
  WS02006235WS02006234 CONDUIT    327.96     0  02:45      0.95    3.46    1.00
  WS02006234WS02006232 CONDUIT    328.66     0  02:47      1.13    0.66    1.00
  WS02006232WS02006231 CONDUIT    328.74     0  02:47      0.95    0.69    0.97
  WS02006231WS02006230 CONDUIT    329.77     0  02:49      1.29    5.00    0.92
  WS02006230WS02006229 CONDUIT    341.35     0  02:48      0.89    7.60    1.00
  WS02006228WS02006109 CONDUIT    531.44     0  02:31      1.06    2.32    1.00
  WS02006116WS02004401 CONDUIT    538.19     0  02:31      0.76    0.74    0.84
  WS02006115WS02006116 CONDUIT    539.64     0  02:31      0.85    0.69    0.76
  WS02006113WS02006111 CONDUIT    552.88     0  02:30      2.45    0.66    0.46
  WS02006112WS02006115 CONDUIT    544.74     0  02:31      0.75    0.32    0.87
  WS02006111WS02006112 CONDUIT    538.13     0  02:30      1.50    0.26    0.67
  WS02006110WS02006113 CONDUIT    533.12     0  02:30      1.26    0.49    0.78
  WS02006109WS02006110 CONDUIT    532.67     0  02:31      1.06    1.02    1.00
  WS02004411WS02004412 CONDUIT    535.41     0  02:36      0.92    0.76    0.69
  WS02004401WS02004402 CONDUIT    537.97     0  02:32      0.77    0.65    0.86
  WS02004413WS02003067 CONDUIT    535.18     0  02:36      1.11    0.23    0.59
  WS02004412WS02004413 CONDUIT    535.36     0  02:36      0.82    0.36    0.78
  WS02004410WS02004411 CONDUIT    535.56     0  02:35      0.94    0.73    0.69
  WS02004409WS02004410 CONDUIT    535.94     0  02:35      0.96    0.69    0.67
  WS02004407WS02004409 CONDUIT    537.29     0  02:33      1.46    0.19    0.48
  WS02004406WS02004407 CONDUIT    537.39     0  02:33      1.04    0.24    0.63
  WS02004405WS02004406 CONDUIT    537.67     0  02:33      0.70    1.06    0.96
  WS02004404WS02004405 CONDUIT    537.43     0  02:33      0.84    5.27    0.96
  WS02004403WS02004404 CONDUIT    537.46     0  02:33      0.74    0.39    0.93
  WS02004402WS02004403 CONDUIT    537.62     0  02:32      0.75    0.77    0.88
  WS02004139WS02001211 CONDUIT    285.63     0  03:09      0.53    0.36    0.53
  WS02004138WS02004139 CONDUIT    285.03     0  00:30      2.39    0.06    0.39
  WS02003067WS02003066 CONDUIT    535.26     0  02:37      1.20    0.17    0.42
  WS02001213WS02003059 CONDUIT    294.38     0  03:10      0.59    0.49    0.71
  WS02001212WS02001213 CONDUIT    293.70     0  03:10      1.19    0.45    0.40
  WS02001211WS02001212 CONDUIT    293.34     0  03:09      0.67    0.22    0.58
  WS02003072WS02003073 CONDUIT    807.17     0  02:34      1.64    1.74    0.45
  WS02003069WS02003072 CONDUIT    807.02     0  02:34      1.54    0.39    0.47
  WS02003060WS02003069 CONDUIT    806.95     0  02:33      1.80    0.32    0.42
  WS02003059WS02003060 CONDUIT    295.36     0  03:11      0.82    0.19    0.61
  HS02004901HS02004770 CONDUIT     12.91     0  02:13      0.05    0.05    0.35
  HS02004876HS02004881 CONDUIT     43.89     0  02:16      0.66    0.47    0.09
  HS02004870HS02004876 CONDUIT     34.92     0  02:17      0.46    0.02    0.11
  HS02004842HS02004848 CONDUIT      6.44     0  02:29      0.03    0.00    0.28
  HS02004837HS02004842 CONDUIT      6.66     0  02:30      0.41    0.00    0.30
  HS02004830HS02004837 CONDUIT     27.63     0  02:17      0.47    0.03    0.08
  HS02004824HS02004830 CONDUIT     27.78     0  02:17      0.51    0.04    0.08
  HS02004817HS02004824 CONDUIT     46.16     0  02:20      0.17    0.02    0.42
  HS02004770HS02004777 CONDUIT     65.68     0  02:13      0.26    0.12    0.36
  HS02004799HS02004480 CONDUIT    162.16     0  02:15      0.66    0.20    0.35
  HS02004792HS02004799 CONDUIT    148.18     0  02:14      0.76    0.09    0.28
  HS02004788HS02004792 CONDUIT     86.18     0  02:15      0.90    0.06    0.14
  HS02004785HS02004788 CONDUIT     65.30     0  02:15      0.57    0.49    0.16
  HS02004777HS02004785 CONDUIT     65.24     0  02:14      0.32    0.08    0.30
  HS02004480HS02004478 CONDUIT    191.50     0  02:15      1.05    0.81    0.26
  HS02004479HS02004480 CONDUIT     30.03     0  02:17      0.15    0.03    0.34
  HS02004862HS02004870 CONDUIT     25.61     0  02:18      0.51    0.03    0.07
  HS02004848HS02004852 CONDUIT     10.62     0  02:17      0.34    0.01    0.04
  HS02004856HS02004862 CONDUIT     17.50     0  02:17      0.38    0.02    0.07
  HS02004852HS02004856 CONDUIT     10.59     0  02:18      0.15    0.01    0.10
  HS02004802HS02004478 CONDUIT     64.70     0  02:20      0.34    0.06    0.28
  HS02004478WS02006287 CONDUIT    254.11     0  02:16      1.44    0.07    0.20
  HS02004817HS02004807 CONDUIT     47.48     0  02:22      0.13    0.03    0.54
  HS02004807HS02004802 CONDUIT     64.20     0  02:19      0.28    0.12    0.33
  YS02001759YS02001757 CONDUIT    258.98     0  02:59      0.33    0.18    1.00
  YS02001762YS02001759 CONDUIT    139.38     0  02:59      0.18    0.16    1.00
  YS02001765YS02001762 CONDUIT    138.81     0  02:59      0.23    0.13    1.00
  YS02001770YS02001767 CONDUIT    132.50     0  02:39      0.32    0.52    1.00
  YS02001774YS02001770 CONDUIT     49.40     0  02:13      0.14    0.03    1.00
  YS02001779YS02001774 CONDUIT     42.46     0  03:34      0.08    0.02    1.00
  YS02001649YS02001757 CONDUIT    407.90     0  03:02      0.52    0.25    1.00
  YS02001767YS02001765 CONDUIT    144.09     0  02:33      0.26    0.18    1.00
  YS02006561YS02001783 CONDUIT    420.72     0  02:48      1.92    0.22    0.55
  YS02001783YS02001784 CONDUIT    420.00     0  02:48      1.36    0.58    0.83
  YS02001784YS02001785 CONDUIT    420.43     0  02:48      1.45    0.98    0.89
  YS02001788YS02001790 CONDUIT    435.64     0  03:27      2.01    0.32    0.96
  YS02001790YS02001791 CONDUIT    460.40     0  03:28      2.36    0.50    1.00
  YS02001791YS02001793 CONDUIT    521.79     0  03:10      4.80    0.22    1.00
  YS02001910YS02001907 CONDUIT    132.77     0  03:04      0.49    0.07    0.81
  YS02001786YS02001788 CONDUIT    420.29     0  02:48      1.90    0.81    0.89
  YS02001915YS02001910 CONDUIT    132.20     0  03:01      0.45    0.07    0.60
  YS02001918YS02001915 CONDUIT     45.99     0  03:07      0.44    0.03    0.32
  YS02001923YS02001920 CONDUIT     41.53     0  03:02      0.50    0.02    0.16
  YS02001926YS02001923 CONDUIT     41.49     0  03:01      0.55    0.06    0.15
  YS02001929YS02001926 CONDUIT     41.52     0  03:01      0.59    0.02    0.15
  YS02001920YS02001918 CONDUIT     44.55     0  03:03      0.51    0.04    0.19
  YS02001629YS02163301 CONDUIT    111.22     0  02:38      0.14    0.14    1.00
  YS02001619YS02001622 CONDUIT    110.56     0  03:45      0.70    0.16    1.00
  YS02001622YS02001625 CONDUIT    168.23     0  03:43      0.28    0.09    1.00
  YS02001625YS02001629 CONDUIT    165.77     0  03:43      0.27    0.08    1.00
  YS02163301YS02001633 CONDUIT     96.71     0  02:58      0.12    0.09    1.00
  YS02163601YS02164001 CONDUIT    187.01     0  02:58      0.24    0.17    1.00
  YS02164001YS02001641 CONDUIT    185.31     0  02:58      0.24    0.25    1.00
  YS02001641YS02001644 CONDUIT    186.15     0  02:58      0.24    0.60    1.00
  YS02001647YS02001649 CONDUIT    307.16     0  02:54      0.39    0.16    1.00
  YS02006553YS02006556 CONDUIT    288.17     0  02:48      0.39    0.25    0.89
  YS02006556YS02006558 CONDUIT    290.65     0  02:48      0.39    0.23    0.92
  YSB6556YSB1171       CONDUIT     16.30     0  02:18      0.07    0.02    0.61
  YS02001907YS02006553 CONDUIT    289.76     0  02:48      0.32    0.34    1.00
  YS02006558YS02006561 CONDUIT    440.32     0  02:48      2.61    0.97    0.58
  YS02001633YS02163601 CONDUIT    187.80     0  02:58      0.24    0.20    1.00
  YS02001644YS02001647 CONDUIT    279.27     0  03:00      0.36    0.16    1.00
  YS02001745YS02001748 CONDUIT    208.56     0  04:51      1.48    0.08    0.68
  YS02001748YS02001751 CONDUIT    242.55     0  03:39      1.15    0.12    1.00
  YS02001751YS02001754 CONDUIT    156.61     0  03:33      1.01    0.08    1.00
  YS02001754YS02001757 CONDUIT    142.71     0  03:46      0.33    0.06    1.00
  YS02001882YS02001884 CONDUIT      4.74     0  02:05      0.06    0.01    0.54
  YS02001884YS02001887 CONDUIT     13.70     0  02:05      0.06    0.02    0.63
  YS02001890YS02001895 CONDUIT    157.76     0  02:48      0.33    0.07    0.60
  YS02001895YS02001898 CONDUIT    157.69     0  02:49      0.50    0.27    0.46
  YS02001898YS02001901 CONDUIT    157.94     0  02:49      0.37    0.10    0.54
  YS02001901YS02001904 CONDUIT    157.81     0  02:47      0.33    0.24    0.59
  YS02001904YS02001907 CONDUIT    158.44     0  02:48      0.25    0.06    0.75
  YS02001887YS02001890 CONDUIT    157.99     0  02:49      0.28    0.27    0.69
  YS02001652YS02001649 CONDUIT    155.63     0  02:50      0.34    0.08    1.00
  YS02001655YS02001652 CONDUIT    181.62     0  02:51      1.08    0.09    1.00
  YS02001658YS02001655 CONDUIT    297.65     0  03:47      1.33    0.13    0.96
  YS02001661YS02001658 CONDUIT    259.15     0  03:42      1.55    0.10    0.71
  YS02001664YS02001661 CONDUIT    112.77     0  02:44      1.26    0.04    0.36
  YSB1154YSB6556       CONDUIT     15.99     0  02:16      0.19    0.03    0.50
  YSB1174YSB1171       CONDUIT     14.68     0  02:10      0.06    0.02    0.62
  YSB1171HS02004479    CONDUIT     29.76     0  02:16      0.54    0.02    0.48
  HS02004881HS02006253 CONDUIT     49.05     0  02:16      1.82    0.01    0.13
  YS02001793JiankangQianchi CONDUIT    682.35     0  03:09     14.16    0.05    1.00
  YS02001757CaochengTiaoxuchi CONDUIT    716.09     0  02:58      1.50    0.31    1.00
  WSF200WS02003060     CONDUIT    536.29     0  02:37      1.82    0.12    0.33
  1                    CONDUIT    808.89     0  02:35      3.14    0.28    0.36
  2                    CONDUIT      0.67     0  02:35      1.08    0.00    0.03
  3                    CONDUIT    504.81     0  02:30      9.81    0.80    0.68
  4                    CONDUIT      0.00     0  00:00      0.00    0.00    0.00
  CC-Pump-1            PUMP         0.00     0  00:00              0.00
  CC-Pump-2            PUMP       200.00     0  02:18              1.00
  JK-Pump-1            PUMP       300.00     0  00:00              1.00
  JK-Pump-2            PUMP       300.00     0  02:23              1.00
  XR-Pump-1            PUMP        95.00     0  00:30              1.00
  XR-Pump-2            PUMP         0.00     0  00:00              0.00
  XR-Pump-3            PUMP        95.00     0  00:20              1.00
  XR-Pump-4            PUMP        95.00     0  00:00              1.00
  
  
  ***************************
  Flow Classification Summary
  ***************************
  
  -------------------------------------------------------------------------------------
                      Adjusted    ---------- Fraction of Time in Flow Class ---------- 
                       /Actual         Up    Down  Sub   Sup   Up    Down  Norm  Inlet 
  Conduit               Length    Dry  Dry   Dry   Crit  Crit  Crit  Crit  Ltd   Ctrl  
  -------------------------------------------------------------------------------------
  WS02003066WSF200        1.00   0.06  0.00  0.00  0.00  0.94  0.00  0.00  0.70  0.00
  WS02006287WS02006284    1.00   0.04  0.01  0.00  0.67  0.27  0.00  0.00  0.77  0.00
  WS02006284WS02006280    1.00   0.04  0.00  0.00  0.00  0.00  0.00  0.96  0.00  0.00
  WS02006280WS02006229    1.00   0.05  0.00  0.00  0.00  0.00  0.00  0.95  0.00  0.00
  WS02006229WS02006228    1.00   0.00  0.00  0.00  0.99  0.00  0.00  0.01  0.01  0.00
  WS02006256WS02006235    1.00   0.00  0.00  0.00  1.00  0.00  0.00  0.00  0.00  0.00
  WS02006253WS02006251    1.00   0.03  0.01  0.00  0.96  0.00  0.00  0.00  0.00  0.00
  WS02006252WS02006251    1.00   0.08  0.00  0.00  0.00  0.00  0.92  0.00  0.00  0.00
  WS02006251WS02006249    1.00   0.00  0.00  0.00  1.00  0.00  0.00  0.00  0.25  0.00
  WS02006249WS02006248    1.00   0.00  0.02  0.00  0.91  0.00  0.07  0.00  0.00  0.00
  WS02006248WS02006247    1.00   0.02  0.00  0.00  0.98  0.00  0.00  0.00  0.15  0.00
  WS02006247WS02006245    1.00   0.02  0.00  0.00  0.98  0.00  0.00  0.00  0.00  0.00
  WS02006245WS02006243    1.00   0.01  0.00  0.00  0.94  0.00  0.00  0.04  0.01  0.00
  WS02006243WS02006242    1.00   0.01  0.00  0.00  0.99  0.00  0.00  0.00  0.26  0.00
  WS02006242WS02006240    1.00   0.00  0.00  0.00  1.00  0.00  0.00  0.00  0.00  0.00
  WS02006240WS02006239    1.00   0.00  0.00  0.00  0.96  0.00  0.00  0.04  0.01  0.00
  WS02006239WS02006238    1.00   0.00  0.00  0.00  1.00  0.00  0.00  0.00  0.00  0.00
  WS02006238WS02006235    1.00   0.00  0.00  0.00  1.00  0.00  0.00  0.00  0.00  0.00
  WS02006235WS02006234    1.00   0.00  0.00  0.00  0.95  0.00  0.05  0.00  0.00  0.00
  WS02006234WS02006232    1.00   0.00  0.00  0.00  1.00  0.00  0.00  0.00  0.07  0.00
  WS02006232WS02006231    1.00   0.00  0.00  0.00  0.99  0.00  0.00  0.00  0.00  0.00
  WS02006231WS02006230    1.00   0.00  0.00  0.00  0.31  0.00  0.69  0.00  0.00  0.00
  WS02006230WS02006229    1.00   0.00  0.00  0.00  0.99  0.00  0.00  0.01  0.01  0.00
  WS02006228WS02006109    1.00   0.00  0.00  0.00  1.00  0.00  0.00  0.00  0.00  0.00
  WS02006116WS02004401    1.00   0.03  0.00  0.00  0.97  0.00  0.00  0.00  0.00  0.00
  WS02006115WS02006116    1.00   0.03  0.00  0.00  0.97  0.00  0.00  0.01  0.00  0.00
  WS02006113WS02006111    1.00   0.02  0.00  0.00  0.00  0.98  0.00  0.00  0.10  0.00
  WS02006112WS02006115    1.00   0.02  0.00  0.00  0.97  0.00  0.00  0.00  0.00  0.00
  WS02006111WS02006112    1.00   0.02  0.00  0.00  0.98  0.00  0.00  0.00  0.98  0.00
  WS02006110WS02006113    1.00   0.01  0.01  0.00  0.98  0.00  0.00  0.00  0.00  0.00
  WS02006109WS02006110    1.00   0.00  0.01  0.00  0.98  0.00  0.01  0.00  0.00  0.00
  WS02004411WS02004412    1.00   0.04  0.00  0.00  0.96  0.00  0.00  0.00  0.00  0.00
  WS02004401WS02004402    1.00   0.03  0.00  0.00  0.97  0.00  0.00  0.00  0.00  0.00
  WS02004413WS02003067    1.00   0.04  0.01  0.00  0.00  0.00  0.95  0.00  0.00  0.00
  WS02004412WS02004413    1.00   0.04  0.00  0.00  0.96  0.00  0.00  0.00  0.03  0.00
  WS02004410WS02004411    1.00   0.04  0.00  0.00  0.96  0.00  0.00  0.00  0.03  0.00
  WS02004409WS02004410    1.00   0.04  0.00  0.00  0.96  0.00  0.00  0.00  0.03  0.00
  WS02004407WS02004409    1.00   0.04  0.00  0.00  0.96  0.00  0.00  0.00  0.89  0.00
  WS02004406WS02004407    1.00   0.00  0.04  0.00  0.96  0.00  0.00  0.00  0.00  0.00
  WS02004405WS02004406    1.00   0.00  0.00  0.00  1.00  0.00  0.00  0.00  0.00  0.00
  WS02004404WS02004405    1.00   0.00  0.00  0.00  1.00  0.00  0.00  0.00  0.00  0.00
  WS02004403WS02004404    1.00   0.00  0.03  0.00  0.97  0.00  0.00  0.00  0.01  0.00
  WS02004402WS02004403    1.00   0.03  0.00  0.00  0.97  0.00  0.00  0.00  0.00  0.00
  WS02004139WS02001211    1.00   0.00  0.00  0.00  0.99  0.00  0.01  0.00  0.00  0.00
  WS02004138WS02004139    1.00   0.00  0.00  0.00  0.99  0.01  0.00  0.00  1.00  0.00
  WS02003067WS02003066    1.00   0.05  0.00  0.00  0.94  0.00  0.00  0.00  0.00  0.00
  WS02001213WS02003059    1.00   0.00  0.01  0.00  0.99  0.00  0.00  0.00  0.00  0.00
  WS02001212WS02001213    1.00   0.01  0.00  0.00  0.90  0.00  0.09  0.00  0.00  0.00
  WS02001211WS02001212    1.00   0.00  0.01  0.00  0.99  0.00  0.00  0.00  0.00  0.00
  WS02003072WS02003073    1.00   0.00  0.00  0.00  0.00  0.00  0.00  1.00  0.00  0.00
  WS02003069WS02003072    1.00   0.00  0.00  0.00  0.99  0.01  0.00  0.00  0.27  0.00
  WS02003060WS02003069    1.00   0.00  0.00  0.00  0.99  0.01  0.00  0.00  0.04  0.00
  WS02003059WS02003060    1.00   0.00  0.00  0.00  1.00  0.00  0.00  0.00  0.02  0.00
  HS02004901HS02004770    1.00   0.04  0.00  0.00  0.96  0.00  0.00  0.00  0.02  0.00
  HS02004876HS02004881    1.00   0.02  0.00  0.00  0.98  0.00  0.00  0.00  0.00  0.00
  HS02004870HS02004876    1.00   0.01  0.00  0.00  0.99  0.00  0.00  0.00  0.95  0.00
  HS02004842HS02004848    1.00   0.00  0.04  0.00  0.96  0.00  0.00  0.00  0.67  0.00
  HS02004837HS02004842    1.00   0.00  0.00  0.00  0.99  0.01  0.00  0.00  0.11  0.00
  HS02004830HS02004837    1.00   0.00  0.00  0.00  1.00  0.00  0.00  0.00  0.99  0.00
  HS02004824HS02004830    1.00   0.00  0.00  0.00  1.00  0.00  0.00  0.00  0.00  0.00
  HS02004817HS02004824    1.00   0.00  0.00  0.00  1.00  0.00  0.00  0.00  1.00  0.00
  HS02004770HS02004777    1.00   0.00  0.04  0.00  0.96  0.00  0.00  0.00  0.07  0.00
  HS02004799HS02004480    1.00   0.00  0.02  0.00  0.94  0.00  0.03  0.00  0.00  0.00
  HS02004792HS02004799    1.00   0.00  0.00  0.00  0.99  0.01  0.00  0.00  0.98  0.00
  HS02004788HS02004792    1.00   0.00  0.00  0.00  0.99  0.01  0.00  0.00  0.98  0.00
  HS02004785HS02004788    1.00   0.00  0.00  0.00  1.00  0.00  0.00  0.00  0.00  0.00
  HS02004777HS02004785    1.00   0.00  0.00  0.00  1.00  0.00  0.00  0.00  0.20  0.00
  HS02004480HS02004478    1.00   0.05  0.00  0.00  0.73  0.00  0.00  0.22  0.00  0.00
  HS02004479HS02004480    1.00   0.03  0.00  0.00  0.97  0.00  0.00  0.00  0.16  0.00
  HS02004862HS02004870    1.00   0.00  0.00  0.00  1.00  0.00  0.00  0.00  0.06  0.00
  HS02004848HS02004852    1.00   0.04  0.00  0.00  0.96  0.00  0.00  0.00  0.71  0.00
  HS02004856HS02004862    1.00   0.00  0.07  0.00  0.93  0.00  0.00  0.00  0.75  0.00
  HS02004852HS02004856    1.00   0.04  0.01  0.00  0.95  0.00  0.00  0.00  0.83  0.00
  HS02004802HS02004478    1.00   0.05  0.00  0.00  0.95  0.00  0.00  0.00  0.01  0.00
  HS02004478WS02006287    1.00   0.05  0.00  0.00  0.84  0.11  0.00  0.00  0.75  0.00
  HS02004817HS02004807    1.00   0.00  0.04  0.00  0.96  0.00  0.00  0.00  0.00  0.00
  HS02004807HS02004802    1.00   0.04  0.00  0.00  0.95  0.00  0.00  0.00  0.01  0.00
  YS02001759YS02001757    1.00   0.00  0.00  0.00  1.00  0.00  0.00  0.00  0.17  0.00
  YS02001762YS02001759    1.00   0.00  0.00  0.00  1.00  0.00  0.00  0.00  0.04  0.00
  YS02001765YS02001762    1.00   0.00  0.00  0.00  1.00  0.00  0.00  0.00  0.22  0.00
  YS02001770YS02001767    1.00   0.00  0.00  0.00  1.00  0.00  0.00  0.00  0.00  0.00
  YS02001774YS02001770    1.00   0.00  0.05  0.00  0.95  0.00  0.00  0.00  0.06  0.00
  YS02001779YS02001774    1.00   0.00  0.00  0.00  1.00  0.00  0.00  0.00  0.26  0.00
  YS02001649YS02001757    1.00   0.00  0.00  0.00  1.00  0.00  0.00  0.00  0.19  0.00
  YS02001767YS02001765    1.00   0.00  0.00  0.00  1.00  0.00  0.00  0.00  0.01  0.00
  YS02006561YS02001783    1.00   0.07  0.00  0.00  0.03  0.90  0.00  0.00  0.63  0.00
  YS02001783YS02001784    1.00   0.00  0.07  0.00  0.93  0.00  0.00  0.00  0.00  0.00
  YS02001784YS02001785    1.00   0.00  0.00  0.00  1.00  0.00  0.00  0.00  0.25  0.00
  YS02001788YS02001790    1.00   0.00  0.00  0.00  0.12  0.88  0.00  0.00  0.72  0.00
  YS02001790YS02001791    1.00   0.00  0.00  0.00  0.07  0.93  0.00  0.00  0.57  0.00
  YS02001791YS02001793    1.00   0.00  0.00  0.00  0.07  0.93  0.00  0.00  0.01  0.00
  YS02001910YS02001907    1.00   0.00  0.00  0.00  0.97  0.00  0.00  0.02  0.13  0.00
  YS02001786YS02001788    1.00   0.00  0.00  0.00  0.11  0.89  0.00  0.00  0.00  0.00
  YS02001915YS02001910    1.00   0.00  0.00  0.00  0.99  0.01  0.00  0.00  0.24  0.00
  YS02001918YS02001915    1.00   0.00  0.01  0.00  0.98  0.01  0.00  0.00  0.71  0.00
  YS02001923YS02001920    1.00   0.00  0.00  0.00  1.00  0.00  0.00  0.00  1.00  0.00
  YS02001926YS02001923    1.00   0.00  0.03  0.00  0.00  0.00  0.97  0.00  0.00  0.00
  YS02001929YS02001926    1.00   0.00  0.04  0.00  0.96  0.00  0.00  0.00  0.87  0.00
  YS02001920YS02001918    1.00   0.00  0.01  0.00  0.99  0.00  0.00  0.00  0.00  0.00
  YS02001629YS02163301    1.00   0.06  0.00  0.00  0.94  0.00  0.00  0.00  0.00  0.00
  YS02001619YS02001622    1.00   0.04  0.00  0.00  0.96  0.00  0.00  0.00  0.00  0.00
  YS02001622YS02001625    1.00   0.04  0.00  0.00  0.96  0.00  0.00  0.00  0.12  0.00
  YS02001625YS02001629    1.00   0.05  0.02  0.00  0.92  0.00  0.02  0.00  0.00  0.00
  YS02163301YS02001633    1.00   0.00  0.06  0.00  0.94  0.00  0.00  0.00  0.00  0.00
  YS02163601YS02164001    1.00   0.00  0.04  0.00  0.96  0.00  0.00  0.00  0.00  0.00
  YS02164001YS02001641    1.00   0.01  0.03  0.00  0.96  0.00  0.00  0.00  0.07  0.00
  YS02001641YS02001644    1.00   0.00  0.01  0.00  0.99  0.00  0.00  0.00  0.00  0.00
  YS02001647YS02001649    1.00   0.00  0.07  0.00  0.93  0.00  0.00  0.00  0.01  0.00
  YS02006553YS02006556    1.00   0.01  0.00  0.00  0.99  0.00  0.00  0.00  0.03  0.00
  YS02006556YS02006558    1.00   0.00  0.00  0.00  1.00  0.00  0.00  0.00  0.00  0.00
  YSB6556YSB1171          1.00   0.03  0.01  0.00  0.96  0.00  0.00  0.00  0.00  0.00
  YS02001907YS02006553    1.00   0.00  0.02  0.00  0.98  0.00  0.00  0.00  0.00  0.00
  YS02006558YS02006561    1.00   0.07  0.00  0.00  0.00  0.93  0.00  0.00  0.63  0.00
  YS02001633YS02163601    1.00   0.00  0.01  0.00  0.99  0.00  0.00  0.00  0.19  0.00
  YS02001644YS02001647    1.00   0.00  0.07  0.00  0.93  0.00  0.00  0.00  0.00  0.00
  YS02001745YS02001748    1.00   0.00  0.00  0.00  0.88  0.01  0.00  0.11  0.13  0.00
  YS02001748YS02001751    1.00   0.00  0.00  0.00  0.97  0.03  0.00  0.00  0.23  0.00
  YS02001751YS02001754    1.00   0.00  0.00  0.00  0.93  0.00  0.00  0.07  0.01  0.00
  YS02001754YS02001757    1.00   0.00  0.00  0.00  0.99  0.01  0.00  0.00  0.26  0.00
  YS02001882YS02001884    1.00   0.06  0.00  0.00  0.94  0.00  0.00  0.00  0.00  0.00
  YS02001884YS02001887    1.00   0.03  0.01  0.00  0.96  0.00  0.00  0.00  0.00  0.00
  YS02001890YS02001895    1.00   0.00  0.06  0.00  0.94  0.00  0.00  0.00  0.00  0.00
  YS02001895YS02001898    1.00   0.06  0.00  0.00  0.93  0.00  0.01  0.00  0.00  0.00
  YS02001898YS02001901    1.00   0.06  0.00  0.00  0.94  0.00  0.00  0.00  0.02  0.00
  YS02001901YS02001904    1.00   0.06  0.00  0.00  0.94  0.00  0.00  0.00  0.00  0.00
  YS02001904YS02001907    1.00   0.00  0.06  0.00  0.94  0.00  0.00  0.00  0.00  0.00
  YS02001887YS02001890    1.00   0.00  0.00  0.00  0.97  0.00  0.02  0.00  0.00  0.00
  YS02001652YS02001649    1.00   0.00  0.00  0.00  1.00  0.00  0.00  0.00  0.25  0.00
  YS02001655YS02001652    1.00   0.00  0.00  0.00  0.93  0.00  0.00  0.07  0.02  0.00
  YS02001658YS02001655    1.00   0.00  0.05  0.00  0.92  0.03  0.00  0.00  0.09  0.00
  YS02001661YS02001658    1.00   0.05  0.00  0.00  0.87  0.07  0.00  0.00  0.14  0.00
  YS02001664YS02001661    1.00   0.04  0.00  0.00  0.76  0.19  0.00  0.00  0.64  0.00
  YSB1154YSB6556          1.00   0.04  0.00  0.00  0.96  0.00  0.00  0.00  0.02  0.00
  YSB1174YSB1171          1.00   0.03  0.01  0.00  0.96  0.00  0.00  0.00  0.00  0.00
  YSB1171HS02004479       1.00   0.03  0.00  0.00  0.97  0.00  0.00  0.00  0.13  0.00
  HS02004881HS02006253    1.00   0.03  0.00  0.00  0.86  0.01  0.00  0.10  0.68  0.00
  YS02001793JiankangQianchi    1.00   0.00  0.00  0.00  0.26  0.73  0.00  0.00  0.17  0.00
  YS02001757CaochengTiaoxuchi    1.00   0.00  0.08  0.00  0.92  0.00  0.00  0.00  0.00  0.00
  WSF200WS02003060        1.00   0.00  0.06  0.00  0.86  0.08  0.00  0.00  0.17  0.00
  1                       1.00   0.00  0.00  0.00  0.00  1.00  0.00  0.00  0.24  0.00
  2                       1.00   0.97  0.00  0.00  0.00  0.03  0.00  0.00  0.01  0.00
  3                       1.00   0.14  0.00  0.00  0.00  0.86  0.00  0.00  0.32  0.00
  4                       1.00   1.00  0.00  0.00  0.00  0.00  0.00  0.00  0.00  0.00
  
  
  *************************
  Conduit Surcharge Summary
  *************************
  
  ----------------------------------------------------------------------------
                                                           Hours        Hours 
                         --------- Hours Full --------   Above Full   Capacity
  Conduit                Both Ends  Upstream  Dnstream   Normal Flow   Limited
  ----------------------------------------------------------------------------
  WS02006229WS02006228        0.86      0.88      0.86      5.00         0.86
  WS02006256WS02006235        5.76      5.76      7.21      4.64         0.01
  WS02006249WS02006248        0.01      0.01      0.01      5.23         0.01
  WS02006247WS02006245        0.01      0.01      0.01      5.33         0.01
  WS02006242WS02006240        0.01      0.01      0.21      0.01         0.01
  WS02006239WS02006238        0.27      0.27      0.38      0.01         0.01
  WS02006238WS02006235        0.35      0.35      0.49      0.01         0.01
  WS02006235WS02006234        0.08      0.08      0.29      5.78         0.01
  WS02006234WS02006232        0.22      0.22      0.67      0.01         0.01
  WS02006232WS02006231        0.01      0.01      0.67      0.01         0.01
  WS02006231WS02006230        0.01      0.01      0.01      5.77         0.01
  WS02006230WS02006229        1.52      4.45      1.52      5.86         1.52
  WS02006228WS02006109        0.87      1.28      0.87      5.59         0.87
  WS02006112WS02006115        0.01      0.01      0.41      0.01         0.01
  WS02006111WS02006112        0.01      0.01      5.36      0.01         0.01
  WS02006110WS02006113        0.01      0.01      0.90      0.01         0.01
  WS02006109WS02006110        0.18      0.18      1.28      0.19         0.01
  WS02004405WS02004406        0.01      0.01      0.01      0.30         0.01
  WS02004404WS02004405        0.01      0.01      0.01      5.65         0.01
  WS02003072WS02003073        0.01      0.01      0.01      5.48         0.01
  YS02001759YS02001757        5.35      5.35      5.43      0.01         0.01
  YS02001762YS02001759        5.32      5.32      5.35      0.01         0.01
  YS02001765YS02001762        5.27      5.27      5.32      0.01         0.01
  YS02001770YS02001767        5.22      5.23      5.23      0.01         0.64
  YS02001774YS02001770        5.16      5.16      5.31      0.01         0.01
  YS02001779YS02001774        4.19      4.19      5.31      0.01         0.01
  YS02001649YS02001757        5.33      5.33      5.43      0.01         0.01
  YS02001767YS02001765        5.23      5.23      5.27      0.01         0.01
  YS02001788YS02001790        0.01      0.01      0.22      0.01         0.01
  YS02001790YS02001791        0.22      0.22      0.27      0.01         0.01
  YS02001791YS02001793        0.27      0.27      0.37      0.01         0.01
  YS02001629YS02163301        5.13      5.13      5.20      0.01         0.01
  YS02001619YS02001622        2.78      2.78      3.21      0.01         0.02
  YS02001622YS02001625        3.21      3.21      4.92      0.01         0.01
  YS02001625YS02001629        2.81      2.81      4.92      0.01         0.01
  YS02163301YS02001633        5.20      5.20      5.28      0.01         0.01
  YS02163601YS02164001        5.27      5.27      5.34      0.01         0.01
  YS02164001YS02001641        5.27      5.27      5.30      0.01         0.01
  YS02001641YS02001644        5.30      5.30      5.30      0.01         0.56
  YS02001647YS02001649        4.76      4.76      5.33      0.01         0.01
  YS02001907YS02006553        0.01      0.01      0.63      0.01         0.01
  YS02001633YS02163601        5.26      5.26      5.34      0.01         0.01
  YS02001644YS02001647        4.76      4.76      5.30      0.01         0.01
  YS02001748YS02001751        0.01      0.01      3.50      0.01         0.01
  YS02001751YS02001754        3.50      3.50      4.30      0.01         0.01
  YS02001754YS02001757        4.71      4.71      5.43      0.01         0.01
  YS02001652YS02001649        4.88      4.88      5.33      0.01         0.01
  YS02001655YS02001652        3.73      3.73      4.50      0.01         0.01
  YS02001658YS02001655        0.01      0.01      3.73      0.01         0.01
  YS02001793JiankangQianchi        0.34      0.34      1.29      0.01         0.01
  YS02001757CaochengTiaoxuchi        0.96      0.96      5.43      0.01         0.01
  
  
  ***************
  Pumping Summary
  ***************
  
  ---------------------------------------------------------------------------------------------------------
                                                  Min       Avg       Max     Total     Power    % Time Off
                        Percent   Number of      Flow      Flow      Flow    Volume     Usage    Pump Curve
  Pump                 Utilized   Start-Ups       LPS       LPS       LPS  10^6 ltr     Kw-hr    Low   High
  ---------------------------------------------------------------------------------------------------------
  CC-Pump-1                0.00           0      0.00      0.00      0.00     0.000      0.00    0.0    0.0
  CC-Pump-2               71.41           1      0.00    191.90    200.00     3.880      8.52    0.0   12.7
  JK-Pump-1               68.08           7      0.00    127.72    300.00     1.876     32.49    0.0    0.0
  JK-Pump-2               97.86           1      0.00    159.18    300.00     3.342     56.26    0.0    0.0
  XR-Pump-1               91.48           5      0.00     77.28     95.00     2.023     19.66    0.0    0.0
  XR-Pump-2                0.00           0      0.00      0.00      0.00     0.000      0.00    0.0    0.0
  XR-Pump-3               97.86           3      0.00     86.79     95.00     2.422     23.17    0.0    0.0
  XR-Pump-4              100.00           2      0.00     86.90     95.00     2.508     24.49    0.0    0.0
  

  Analysis begun on:  Wed Jan  5 21:40:46 2022
  Analysis ended on:  Wed Jan  5 21:40:49 2022
  Total elapsed time: 00:00:03