
  EPA STORM WATER MANAGEMENT MODEL - VERSION 5.1 (Build 5.3.0.dev0)
  --------------------------------------------------------------

  WARNING 04: minimum elevation drop used for Conduit WS02004404WS02004405
  WARNING 03: negative offset ignored for Link YS02001904YS02001907
  
  *********************************************************
  NOTE: The summary statistics displayed in this report are
  based on results found at every computational time step,  
  not just on results from each reporting time step.
  *********************************************************
  
  ****************
  Analysis Options
  ****************
  Flow Units ............... LPS
  Process Models:
    Rainfall/Runoff ........ YES
    RDII ................... NO
    Snowmelt ............... NO
    Groundwater ............ NO
    Flow Routing ........... YES
    Ponding Allowed ........ NO
    Water Quality .......... NO
  Infiltration Method ...... HORTON
  Flow Routing Method ...... DYNWAVE
  Surcharge Method ......... EXTRAN
  Starting Date ............ 08/28/2015 08:00:00
  Ending Date .............. 08/28/2015 15:50:00
  Antecedent Dry Days ...... 8.0
  Report Time Step ......... 00:01:00
  Wet Time Step ............ 00:01:00
  Dry Time Step ............ 00:01:00
  Routing Time Step ........ 5.00 sec
  Variable Time Step ....... YES
  Maximum Trials ........... 8
  Number of Threads ........ 4
  Head Tolerance ........... 0.001500 m
  
  
  **************************        Volume         Depth
  Runoff Quantity Continuity     hectare-m            mm
  **************************     ---------       -------
  Total Precipitation ......         1.257         2.751
  Evaporation Loss .........         0.000         0.000
  Infiltration Loss ........         0.302         0.661
  Surface Runoff ...........         0.267         0.585
  Final Storage ............         0.688         1.506
  Continuity Error (%) .....        -0.013
  
  
  **************************        Volume        Volume
  Flow Routing Continuity        hectare-m      10^6 ltr
  **************************     ---------     ---------
  Dry Weather Inflow .......         0.616         6.165
  Wet Weather Inflow .......         0.267         2.667
  Groundwater Inflow .......         0.000         0.000
  RDII Inflow ..............         0.000         0.000
  External Inflow ..........         0.102         1.024
  External Outflow .........         1.007        10.067
  Flooding Loss ............         0.000         0.000
  Evaporation Loss .........         0.000         0.000
  Exfiltration Loss ........         0.000         0.000
  Initial Stored Volume ....         0.076         0.761
  Final Stored Volume ......         0.117         1.166
  Continuity Error (%) .....        -5.811
  
  
  *************************
  Highest Continuity Errors
  *************************
  Node JK-storage (-61.75%)
  Node HS02004842 (51.92%)
  Node YS02001884 (43.56%)
  Node YS02001774 (28.85%)
  Node YSB1171 (18.57%)
  
  
  ***************************
  Time-Step Critical Elements
  ***************************
  Link WS02006252WS02006251 (81.52%)
  Link WS02006280WS02006229 (6.15%)
  Link 3 (4.72%)
  
  
  ********************************
  Highest Flow Instability Indexes
  ********************************
  Link WS02006113WS02006111 (59)
  Link WS02006111WS02006112 (10)
  Link YS02001754YS02001757 (4)
  Link YS02001767YS02001765 (3)
  Link YS02001751YS02001754 (3)
  
  
  *************************
  Routing Time Step Summary
  *************************
  Minimum Time Step           :     0.50 sec
  Average Time Step           :     1.49 sec
  Maximum Time Step           :     5.00 sec
  Percent in Steady State     :    -0.00
  Average Iterations per Step :     2.00
  Percent Not Converging      :     0.00
  
  
  ***************************
  Subcatchment Runoff Summary
  ***************************
  
  ------------------------------------------------------------------------------------------------------------------------------
                            Total      Total      Total      Total     Imperv       Perv      Total       Total     Peak  Runoff
                           Precip      Runon       Evap      Infil     Runoff     Runoff     Runoff      Runoff   Runoff   Coeff
  Subcatchment                 mm         mm         mm         mm         mm         mm         mm    10^6 ltr      LPS
  ------------------------------------------------------------------------------------------------------------------------------
  sub0                       2.75       0.00       0.00       0.19       1.29       0.00       1.29        0.00     0.28   0.470
  sub1                       2.75       0.00       0.00       0.30       1.20       0.00       1.20        0.01     1.48   0.436
  sub2                       2.75       0.00       0.00       1.02       0.83       0.00       0.83        0.01     1.32   0.303
  sub3                       2.75       0.00       0.00       1.02       0.81       0.00       0.81        0.02     2.71   0.294
  sub4                       2.75       0.00       0.00       0.30       1.10       0.00       1.10        0.02     3.04   0.399
  sub5                       2.75       0.00       0.00       0.19       1.25       0.00       1.25        0.01     2.63   0.455
  sub7                       2.75       0.00       0.00       0.25       1.25       0.00       1.25        0.00     0.92   0.454
  sub8                       2.75       0.00       0.00       0.25       1.24       0.00       1.24        0.01     1.63   0.452
  sub9                       2.75       0.00       0.00       0.25       1.24       0.00       1.24        0.01     1.21   0.451
  sub10                      2.75       0.00       0.00       0.22       1.24       0.00       1.24        0.01     2.62   0.452
  sub11                      2.75       0.00       0.00       0.22       1.26       0.00       1.26        0.01     3.06   0.458
  sub12                      2.75       0.00       0.00       0.36       1.21       0.00       1.21        0.01     2.56   0.438
  sub14                      2.75       0.00       0.00       0.25       1.24       0.00       1.24        0.01     2.36   0.450
  sub15                      2.75       0.00       0.00       0.83       0.95       0.00       0.95        0.02     3.21   0.346
  sub16                      2.75       0.00       0.00       0.91       0.93       0.00       0.93        0.01     2.25   0.336
  sub17                      2.75       0.00       0.00       0.88       0.94       0.00       0.94        0.01     1.82   0.341
  sub22                      2.75       0.00       0.00       1.18       0.78       0.00       0.78        0.05    10.44   0.284
  sub23                      2.75       0.00       0.00       1.02       0.86       0.00       0.86        0.04     8.88   0.314
  sub60                      2.75       0.00       0.00       0.33       0.62       0.00       0.62        0.19    14.21   0.224
  sub61                      2.75       0.00       0.00       0.47       0.71       0.00       0.71        0.22    18.58   0.257
  sub62                      2.75       0.00       0.00       0.22       0.74       0.00       0.74        0.23    18.79   0.270
  sub63                      2.75       0.00       0.00       0.80       0.65       0.00       0.65        0.20    17.54   0.235
  sub64                      2.75       0.00       0.00       0.41       0.59       0.00       0.59        0.18    13.45   0.213
  sub65                      2.75       0.00       0.00       0.36       0.59       0.00       0.59        0.18    13.60   0.215
  sub66                      2.75       0.00       0.00       0.80       0.52       0.00       0.52        0.16    12.51   0.190
  sub67                      2.75       0.00       0.00       0.22       0.87       0.00       0.87        0.27    24.78   0.316
  sub68                      2.75       0.00       0.00       0.39       0.76       0.00       0.76        0.24    20.70   0.278
  sub69                      2.75       0.00       0.00       0.41       0.89       0.00       0.89        0.21    20.96   0.322
  sub70                      2.75       0.90       0.00       1.24       0.90       0.00       0.90        0.21    13.67   0.246
  sub71                      2.75       0.00       0.00       0.22       0.69       0.00       0.69        0.16    12.93   0.252
  sub72                      2.75       0.00       0.00       0.19       0.43       0.00       0.43        0.09     5.63   0.155
  sub73                      2.75       0.87       0.00       1.23       0.82       0.00       0.82        0.19    11.86   0.226
  sub74                      2.75       0.00       0.00       2.06       0.27       0.00       0.27        0.11    11.76   0.099
  
  
  ******************
  Node Depth Summary
  ******************
  
  ---------------------------------------------------------------------------------
                                 Average  Maximum  Maximum  Time of Max    Reported
                                   Depth    Depth      HGL   Occurrence   Max Depth
  Node                 Type       Meters   Meters   Meters  days hr:min      Meters
  ---------------------------------------------------------------------------------
  WS02001211           JUNCTION     0.63     0.69     5.53     0  03:33        0.69
  WS02001212           JUNCTION     0.36     0.41     5.47     0  03:32        0.41
  WS02001213           JUNCTION     0.55     0.63     5.39     0  03:31        0.63
  WS02003069           JUNCTION     0.34     0.42     5.01     0  03:29        0.42
  WS02003072           JUNCTION     0.41     0.49     4.87     0  03:30        0.49
  WS02003073           JUNCTION     0.24     0.29     4.36     0  03:31        0.29
  WS02003060           JUNCTION     0.31     0.38     5.31     0  03:29        0.38
  WS02003066           JUNCTION     0.17     0.22     5.77     0  03:53        0.22
  WS02003059           JUNCTION     0.61     0.69     5.37     0  03:30        0.69
  WS02003067           JUNCTION     0.43     0.55     5.87     0  03:53        0.55
  WS02004401           JUNCTION     0.50     0.61     6.61     0  03:48        0.61
  WS02004402           JUNCTION     0.53     0.65     6.61     0  03:49        0.65
  WS02004403           JUNCTION     0.56     0.67     6.60     0  03:49        0.67
  WS02004404           JUNCTION     0.63     0.75     6.60     0  03:49        0.75
  WS02004406           JUNCTION     0.65     0.77     6.60     0  03:49        0.77
  WS02004409           JUNCTION     0.31     0.43     6.20     0  03:52        0.43
  WS02004410           JUNCTION     0.34     0.46     6.18     0  03:52        0.46
  WS02004411           JUNCTION     0.36     0.48     6.16     0  03:52        0.48
  WS02004412           JUNCTION     0.38     0.50     6.14     0  03:53        0.50
  WS02004413           JUNCTION     0.54     0.67     6.14     0  03:53        0.67
  WS02004405           JUNCTION     0.63     0.75     6.60     0  03:49        0.75
  WS02006109           JUNCTION     0.55     0.68     7.30     0  03:19        0.68
  WS02006110           JUNCTION     0.56     0.69     7.28     0  03:20        0.69
  WS02006111           JUNCTION     0.14     0.20     6.90     0  03:20        0.20
  WS02006112           JUNCTION     0.64     0.77     6.66     0  03:47        0.77
  WS02006113           JUNCTION     0.21     0.30     7.19     0  03:20        0.30
  WS02006115           JUNCTION     0.38     0.50     6.63     0  03:48        0.50
  WS02006116           JUNCTION     0.46     0.58     6.62     0  03:48        0.58
  WS02006230           JUNCTION     0.45     0.60     7.35     0  03:19        0.60
  WS02006231           JUNCTION     0.30     0.41     7.53     0  03:19        0.41
  WS02006232           JUNCTION     0.41     0.54     7.58     0  03:18        0.54
  WS02006234           JUNCTION     0.31     0.44     7.60     0  03:18        0.44
  WS02006235           JUNCTION     0.33     0.47     7.63     0  03:18        0.47
  WS02006238           JUNCTION     0.36     0.49     7.64     0  03:18        0.49
  WS02006240           JUNCTION     0.23     0.36     7.65     0  03:19        0.36
  WS02006242           JUNCTION     0.28     0.41     7.68     0  03:19        0.41
  WS02006243           JUNCTION     0.16     0.27     7.69     0  03:20        0.27
  WS02006245           JUNCTION     0.17     0.26     7.75     0  03:21        0.26
  WS02006247           JUNCTION     0.19     0.29     7.79     0  03:22        0.29
  WS02006248           JUNCTION     0.15     0.24     7.83     0  05:27        0.24
  WS02006249           JUNCTION     0.19     0.29     7.89     0  05:27        0.29
  WS02006239           JUNCTION     0.30     0.43     7.64     0  03:18        0.43
  WS02006251           JUNCTION     0.18     0.29     7.96     0  05:26        0.29
  WS02006252           JUNCTION     0.17     0.29     8.53     0  05:26        0.27
  WS02006253           JUNCTION     0.20     0.32     7.96     0  05:27        0.32
  WS02006256           JUNCTION     0.71     1.15     8.09     0  00:00        1.10
  WS02004138           JUNCTION     0.15     0.17     7.42     0  01:30        0.17
  WS02004407           JUNCTION     0.14     0.20     6.51     0  03:49        0.20
  WS02006228           JUNCTION     0.52     0.67     7.32     0  03:19        0.67
  WS02006229           JUNCTION     0.49     0.63     7.33     0  03:19        0.63
  WS02006280           JUNCTION     0.04     0.07     8.34     0  02:39        0.07
  WS02006284           JUNCTION     0.32     0.38     8.78     0  02:39        0.38
  WS02006287           JUNCTION     0.05     0.10     9.06     0  02:38        0.10
  WSF200               JUNCTION     0.13     0.19     5.42     0  03:54        0.19
  HS02004901           JUNCTION     0.09     0.14     9.96     0  02:37        0.14
  HS02004881           JUNCTION     0.00     0.01     9.04     0  02:36        0.01
  HS02004876           JUNCTION     0.02     0.05     9.08     0  02:37        0.05
  HS02004870           JUNCTION     0.00     0.01     9.30     0  02:34        0.01
  HS02004862           JUNCTION     0.01     0.02     9.40     0  02:37        0.02
  HS02004856           JUNCTION     0.06     0.08     9.51     0  02:35        0.08
  HS02004852           JUNCTION     0.00     0.01     9.52     0  02:37        0.01
  HS02004848           JUNCTION     0.00     0.01     9.61     0  02:31        0.01
  HS02004842           JUNCTION     0.32     0.34     9.61     0  02:31        0.34
  HS02004837           JUNCTION     0.02     0.03     9.61     0  02:31        0.03
  HS02004830           JUNCTION     0.03     0.04     9.51     0  02:32        0.04
  HS02004824           JUNCTION     0.01     0.02     9.42     0  02:35        0.02
  HS02004817           JUNCTION     0.40     0.45     9.30     0  02:38        0.45
  HS02004807           JUNCTION     0.09     0.13     9.30     0  02:38        0.13
  HS02004802           JUNCTION     0.13     0.17     9.29     0  02:38        0.17
  HS02004799           JUNCTION     0.07     0.13     9.34     0  02:36        0.13
  HS02004792           JUNCTION     0.01     0.04     9.56     0  02:35        0.04
  HS02004788           JUNCTION     0.01     0.03     9.93     0  02:38        0.03
  HS02004785           JUNCTION     0.02     0.06     9.96     0  02:38        0.06
  HS02004777           JUNCTION     0.11     0.16     9.96     0  02:38        0.16
  HS02004770           JUNCTION     0.08     0.13     9.96     0  02:38        0.13
  HS02004480           JUNCTION     0.04     0.09     9.33     0  02:37        0.09
  HS02004479           JUNCTION     0.08     0.13     9.33     0  02:37        0.13
  HS02004478           JUNCTION     0.04     0.06     9.29     0  02:38        0.06
  YS02001745           JUNCTION     0.04     0.05     7.57     0  03:01        0.05
  YS02001748           JUNCTION     0.04     0.06     7.14     0  03:01        0.06
  YS02001751           JUNCTION     0.12     0.17     7.05     0  03:24        0.17
  YS02001754           JUNCTION     0.35     0.44     7.05     0  05:28        0.44
  YS02001762           JUNCTION     0.54     0.65     7.05     0  03:20        0.64
  YS02001765           JUNCTION     0.49     0.60     7.05     0  03:20        0.60
  YS02001767           JUNCTION     0.46     0.56     7.05     0  03:20        0.56
  YS02001770           JUNCTION     0.45     0.55     7.05     0  03:21        0.55
  YS02001774           JUNCTION     0.52     0.62     7.05     0  03:21        0.62
  YS02001779           JUNCTION     0.28     0.36     7.05     0  03:21        0.36
  YS02001882           JUNCTION     0.16     0.22     6.94     0  03:03        0.22
  YS02001884           JUNCTION     0.25     0.32     6.94     0  03:03        0.32
  YS02001759           JUNCTION     0.57     0.68     7.04     0  03:22        0.68
  YS02001887           JUNCTION     0.32     0.40     6.94     0  03:03        0.40
  YS02001890           JUNCTION     0.35     0.43     6.94     0  03:03        0.43
  YS02001898           JUNCTION     0.13     0.19     6.92     0  03:04        0.19
  YS02001901           JUNCTION     0.24     0.32     6.92     0  03:04        0.32
  YS02001904           JUNCTION     0.22     0.29     6.92     0  03:05        0.29
  YS02001907           JUNCTION     0.54     0.63     6.92     0  03:04        0.63
  YS02001910           JUNCTION     0.34     0.42     6.92     0  03:04        0.42
  YS02001915           JUNCTION     0.15     0.21     6.92     0  03:04        0.21
  YS02001918           JUNCTION     0.04     0.05     7.12     0  03:07        0.05
  YS02001619           JUNCTION     0.09     0.13     7.06     0  03:15        0.13
  YS02001629           JUNCTION     0.40     0.50     7.05     0  03:16        0.50
  YS02001641           JUNCTION     0.50     0.61     7.05     0  03:17        0.61
  YS02001644           JUNCTION     0.51     0.61     7.05     0  03:17        0.61
  YS02001652           JUNCTION     0.36     0.45     7.04     0  03:22        0.45
  YS02001655           JUNCTION     0.15     0.19     7.04     0  03:24        0.19
  YS02001920           JUNCTION     0.12     0.13     7.14     0  03:06        0.13
  YS02001923           JUNCTION     0.03     0.04     7.30     0  03:04        0.04
  YS02001926           JUNCTION     0.08     0.09     7.54     0  03:03        0.09
  YS02001929           JUNCTION     0.03     0.04     7.73     0  03:01        0.04
  YS02001658           JUNCTION     0.04     0.06     7.20     0  03:01        0.06
  YS02001661           JUNCTION     0.10     0.13     7.53     0  03:01        0.13
  YS02001664           JUNCTION     0.03     0.05     7.98     0  03:01        0.05
  YS02001622           JUNCTION     0.10     0.14     7.05     0  03:15        0.14
  YS02001633           JUNCTION     0.49     0.59     7.05     0  03:17        0.59
  YS02001649           JUNCTION     0.54     0.65     7.04     0  03:22        0.65
  YS02001757           JUNCTION     0.66     0.78     7.04     0  03:22        0.78
  YS02001895           JUNCTION     0.13     0.19     6.93     0  03:03        0.19
  YS02001625           JUNCTION     0.36     0.44     7.05     0  03:15        0.44
  YS02163301           JUNCTION     0.43     0.53     7.05     0  03:17        0.53
  YS02163601           JUNCTION     0.54     0.65     7.05     0  03:17        0.65
  YS02164001           JUNCTION     0.48     0.59     7.05     0  03:17        0.59
  YS02001647           JUNCTION     0.35     0.43     7.04     0  03:23        0.43
  YSB1154              JUNCTION     0.21     0.28     9.33     0  02:37        0.28
  YSB6556              JUNCTION     0.11     0.17     9.33     0  02:38        0.17
  YSB1174              JUNCTION     0.16     0.23     9.33     0  02:37        0.23
  YSB1171              JUNCTION     0.36     0.43     9.33     0  02:37        0.43
  YS02006553           JUNCTION     0.55     0.64     6.92     0  03:04        0.64
  YS02006561           JUNCTION     0.07     0.10     6.76     0  03:05        0.10
  YS02006556           JUNCTION     0.52     0.61     6.92     0  03:05        0.61
  YS02006558           JUNCTION     0.57     0.66     6.92     0  03:05        0.66
  YS02001783           JUNCTION     0.11     0.17     6.31     0  03:05        0.17
  YS02001784           JUNCTION     0.14     0.20     6.27     0  03:06        0.20
  YS02001786           JUNCTION     0.12     0.17     6.20     0  03:06        0.17
  YS02001788           JUNCTION     0.08     0.12     6.10     0  03:06        0.12
  YS02001790           JUNCTION     0.10     0.15     5.79     0  03:06        0.15
  YS02001791           JUNCTION     0.07     0.10     5.57     0  03:07        0.10
  YS02001793           JUNCTION     0.05     0.07     4.90     0  03:07        0.07
  WS02004139           JUNCTION     0.58     0.64     5.55     0  03:33        0.64
  WSC                  OUTFALL      0.24     0.29     0.96     0  03:31        0.29
  3                    OUTFALL      0.01     0.13     6.13     0  00:00        0.10
  4                    OUTFALL      0.00     0.00     7.00     0  00:00        0.00
  5                    OUTFALL      0.00     0.00     5.00     0  00:00        0.00
  JK-storage           STORAGE      0.06     3.00     3.80     0  00:00        2.70
  CC-storage           STORAGE      0.00     0.00     7.00     0  05:22        0.00
  XR-storage           STORAGE      1.35     5.10     3.10     0  00:21        5.10
  
  
  *******************
  Node Inflow Summary
  *******************
  
  -------------------------------------------------------------------------------------------------
                                  Maximum  Maximum                  Lateral       Total        Flow
                                  Lateral    Total  Time of Max      Inflow      Inflow     Balance
                                   Inflow   Inflow   Occurrence      Volume      Volume       Error
  Node                 Type           LPS      LPS  days hr:min    10^6 ltr    10^6 ltr     Percent
  -------------------------------------------------------------------------------------------------
  WS02001211           JUNCTION      7.35   292.82     0  03:39       0.207        6.62       0.459
  WS02001212           JUNCTION      0.00   293.00     0  03:39           0        6.59       0.256
  WS02001213           JUNCTION      0.00   293.17     0  03:38           0        6.57       0.262
  WS02003069           JUNCTION      0.32   540.84     0  03:29     0.00902        9.98       0.188
  WS02003072           JUNCTION      0.00   540.81     0  03:30           0        9.96       0.254
  WS02003073           JUNCTION      1.82   542.63     0  03:30      0.0514        9.99       0.271
  WS02003060           JUNCTION     16.53   540.53     0  03:28       0.466        9.99       0.183
  WS02003066           JUNCTION      0.00   239.86     0  03:53           0           3       0.086
  WS02003059           JUNCTION      0.00   293.52     0  03:38           0        6.56       0.474
  WS02003067           JUNCTION      0.00   239.86     0  03:53           0        3.01       0.205
  WS02004401           JUNCTION      0.00   245.43     0  03:21           0        3.16       0.440
  WS02004402           JUNCTION      0.00   243.89     0  03:22           0        3.14       0.436
  WS02004403           JUNCTION      0.00   242.72     0  03:22           0        3.13       0.414
  WS02004404           JUNCTION      0.16   241.97     0  03:22     0.00457        3.12       0.331
  WS02004406           JUNCTION      0.00   240.92     0  03:23           0         3.1       0.820
  WS02004409           JUNCTION      0.00   240.58     0  03:49           0        3.07       0.248
  WS02004410           JUNCTION      0.00   240.34     0  03:50           0        3.06       0.312
  WS02004411           JUNCTION      0.00   240.14     0  03:51           0        3.05       0.347
  WS02004412           JUNCTION      0.00   240.00     0  03:52           0        3.04       0.412
  WS02004413           JUNCTION      0.00   239.90     0  03:52           0        3.03       0.662
  WS02004405           JUNCTION      0.04   241.50     0  03:22     0.00107        3.11       0.497
  WS02006109           JUNCTION      1.23   251.38     0  03:19      0.0347        3.22       0.435
  WS02006110           JUNCTION      0.00   251.10     0  03:19           0        3.21       0.356
  WS02006111           JUNCTION      0.00   252.64     0  03:20           0        3.19       0.059
  WS02006112           JUNCTION      1.82   251.02     0  03:20     0.00804         3.2       0.647
  WS02006113           JUNCTION      0.00   250.78     0  03:20           0         3.2       0.115
  WS02006115           JUNCTION      0.00   249.35     0  03:21           0        3.18       0.328
  WS02006116           JUNCTION      0.00   247.21     0  03:21           0        3.17       0.338
  WS02006230           JUNCTION     10.28   220.50     0  03:19        0.29         2.8       0.254
  WS02006231           JUNCTION      0.00   210.49     0  03:18           0        2.51       0.160
  WS02006232           JUNCTION      0.00   210.81     0  03:18           0        2.52       0.337
  WS02006234           JUNCTION      0.00   211.33     0  03:18           0        2.52       0.026
  WS02006235           JUNCTION      0.00   211.70     0  03:17           0        2.56       0.215
  WS02006238           JUNCTION      0.00   117.95     0  03:20           0        1.14       0.204
  WS02006240           JUNCTION      0.00   109.89     0  03:21           0        1.11       0.278
  WS02006242           JUNCTION      0.00   106.21     0  03:22           0        1.11       0.417
  WS02006243           JUNCTION      0.00   105.66     0  05:28           0         1.1       0.209
  WS02006245           JUNCTION      0.00   107.06     0  05:27           0         1.1       0.220
  WS02006247           JUNCTION      0.00   110.61     0  05:27           0         1.1       0.155
  WS02006248           JUNCTION      0.00   113.45     0  05:27           0         1.1      -0.092
  WS02006249           JUNCTION      0.00   121.78     0  05:26           0        1.11       0.451
  WS02006239           JUNCTION      0.00   113.89     0  03:21           0        1.13       0.258
  WS02006251           JUNCTION      0.08   137.26     0  05:26     0.00217        1.11       0.172
  WS02006252           JUNCTION      0.00   137.59     0  05:26           0        1.06       0.015
  WS02006253           JUNCTION      0.28     8.72     0  05:23     0.00105      0.0491       1.678
  WS02006256           JUNCTION      0.00   300.00     0  00:00           0        1.55       0.136
  WS02004138           JUNCTION      0.00   285.00     0  00:50           0        6.44       0.061
  WS02004407           JUNCTION      0.00   240.59     0  03:49           0        3.07       0.114
  WS02006228           JUNCTION      0.00   250.54     0  03:19           0         3.2       0.269
  WS02006229           JUNCTION      0.00   250.87     0  03:19           0         3.2       0.210
  WS02006280           JUNCTION      0.00    48.81     0  02:39           0       0.412       0.018
  WS02006284           JUNCTION      0.10    48.82     0  02:38      0.0027       0.414       0.288
  WS02006287           JUNCTION      0.00    48.73     0  02:38           0       0.412       0.168
  WSF200               JUNCTION      0.00   239.86     0  03:53           0           3       0.071
  HS02004901           JUNCTION      2.25     2.25     0  02:24     0.00969     0.00983      21.724
  HS02004881           JUNCTION      0.92     7.47     0  02:36     0.00421      0.0434       0.130
  HS02004876           JUNCTION      1.48     6.67     0  02:33     0.00797      0.0397       1.278
  HS02004870           JUNCTION      1.63     5.23     0  02:33     0.00794      0.0319       0.323
  HS02004862           JUNCTION      1.52     3.69     0  02:34      0.0134      0.0241       0.675
  HS02004856           JUNCTION      1.21     2.19     0  02:33     0.00596      0.0121      13.404
  HS02004852           JUNCTION      0.00     1.05     0  02:35           0     0.00619       0.678
  HS02004848           JUNCTION      2.71     2.71     0  02:34      0.0182      0.0182       0.208
  HS02004842           JUNCTION      0.00     4.47     0  00:03           0       0.025     107.981
  HS02004837           JUNCTION      8.97    10.62     0  02:30       0.193       0.205       0.399
  HS02004830           JUNCTION      0.15    10.76     0  02:32     0.00423       0.195       0.634
  HS02004824           JUNCTION      3.09    13.83     0  02:35      0.0243       0.218       0.246
  HS02004817           JUNCTION      0.60    14.43     0  02:35      0.0169       0.235       7.638
  HS02004807           JUNCTION      3.06    17.24     0  02:35      0.0146       0.233       1.847
  HS02004802           JUNCTION      0.00    17.20     0  02:37           0       0.228       1.803
  HS02004799           JUNCTION      2.36    26.93     0  02:35      0.0118       0.177       1.267
  HS02004792           JUNCTION     10.72    24.69     0  02:35      0.0572       0.166       0.254
  HS02004788           JUNCTION      4.88    14.75     0  02:37      0.0634        0.11       0.360
  HS02004785           JUNCTION      0.15    10.13     0  02:36     0.00423      0.0485       0.975
  HS02004777           JUNCTION      0.03    10.23     0  02:33    0.000846      0.0486      11.872
  HS02004770           JUNCTION      8.88    10.72     0  02:27      0.0412      0.0493       6.704
  HS02004480           JUNCTION      0.00    31.57     0  02:36           0       0.199       0.294
  HS02004479           JUNCTION      0.00     4.70     0  02:38           0      0.0345       2.147
  HS02004478           JUNCTION      0.00    48.73     0  02:38           0       0.413       0.178
  YS02001745           JUNCTION     14.22    14.22     0  03:01       0.187       0.187       0.108
  YS02001748           JUNCTION      0.04    14.25     0  03:01     0.00127       0.188       0.056
  YS02001751           JUNCTION      0.01    23.41     0  07:11     0.00031       0.225       0.804
  YS02001754           JUNCTION      0.26    83.93     0  05:45     0.00733       0.399       2.286
  YS02001762           JUNCTION      0.00    25.36     0  03:22           0       0.249       5.599
  YS02001765           JUNCTION      0.00    35.75     0  07:07           0        0.24       6.141
  YS02001767           JUNCTION      0.54    28.84     0  07:03      0.0151       0.244       8.329
  YS02001770           JUNCTION     18.95    22.30     0  03:11       0.232       0.245       6.941
  YS02001774           JUNCTION      0.00    12.34     0  07:48           0      0.0499      40.547
  YS02001779           JUNCTION      0.01     8.73     0  07:27    0.000141      0.0239      26.462
  YS02001882           JUNCTION      0.00     1.15     0  02:13           0     0.00198     130.086
  YS02001884           JUNCTION      0.00     3.66     0  02:09           0     0.00838      77.167
  YS02001759           JUNCTION     18.62    43.55     0  07:07       0.219        0.44       3.622
  YS02001887           JUNCTION     25.23    25.23     0  03:01       0.281       0.284       2.096
  YS02001890           JUNCTION      0.00    24.98     0  03:00           0        0.27       2.451
  YS02001898           JUNCTION      0.00    24.78     0  03:01           0       0.262       0.528
  YS02001901           JUNCTION      0.00    24.88     0  03:03           0       0.262       1.647
  YS02001904           JUNCTION      0.00    24.77     0  03:04           0       0.262       1.543
  YS02001907           JUNCTION      0.00    45.97     0  03:05           0        0.58       3.569
  YS02001910           JUNCTION      0.00    21.43     0  03:01           0       0.328       2.678
  YS02001915           JUNCTION     12.94    21.37     0  03:01       0.164       0.331       0.926
  YS02001918           JUNCTION      0.00     8.55     0  03:05           0       0.168       0.330
  YS02001619           JUNCTION     12.51    12.51     0  03:01        0.16        0.16       0.259
  YS02001629           JUNCTION      0.00    15.90     0  03:10           0       0.148       3.865
  YS02001641           JUNCTION      0.00    33.22     0  03:09           0       0.298       4.270
  YS02001644           JUNCTION     13.49    44.52     0  03:09       0.179       0.458       3.357
  YS02001652           JUNCTION      0.00    24.40     0  07:02           0       0.216       4.043
  YS02001655           JUNCTION      0.15    17.68     0  03:01     0.00434       0.201       1.361
  YS02001920           JUNCTION      2.87     8.55     0  03:04      0.0809       0.169       0.808
  YS02001923           JUNCTION      0.04     5.68     0  03:03     0.00106      0.0882       0.153
  YS02001926           JUNCTION      0.05     5.67     0  03:01     0.00147      0.0881       1.161
  YS02001929           JUNCTION      5.63     5.63     0  03:01      0.0868      0.0868       0.138
  YS02001658           JUNCTION      0.00    17.53     0  03:01           0       0.195       0.075
  YS02001661           JUNCTION      0.00    17.54     0  03:01           0       0.196       0.310
  YS02001664           JUNCTION     17.54    17.54     0  03:01       0.196       0.196       0.053
  YS02001622           JUNCTION      0.00    13.32     0  03:08           0        0.16       1.347
  YS02001633           JUNCTION     13.80    30.11     0  03:17       0.187       0.322       5.824
  YS02001649           JUNCTION      0.00    61.74     0  03:19           0       0.627       3.760
  YS02001757           JUNCTION      0.00   148.45     0  05:31           0         1.3       5.433
  YS02001895           JUNCTION      0.00    24.82     0  03:02           0       0.264       0.876
  YS02001625           JUNCTION      0.00    15.18     0  03:07           0       0.159       9.217
  YS02163301           JUNCTION      0.00    17.04     0  03:10           0        0.15       8.533
  YS02163601           JUNCTION      0.11    31.97     0  03:09      0.0031       0.304       6.513
  YS02164001           JUNCTION      0.00    32.93     0  03:09           0       0.295       3.967
  YS02001647           JUNCTION      0.00    46.02     0  03:18           0       0.432       2.717
  YSB1154              JUNCTION      2.63     2.63     0  02:28      0.0142      0.0157      10.129
  YSB6556              JUNCTION      0.00     2.60     0  02:33           0      0.0168       7.964
  YSB1174              JUNCTION      2.56     2.56     0  02:23      0.0105      0.0116      12.442
  YSB1171              JUNCTION      0.00     4.77     0  02:35           0       0.034      22.809
  YS02006553           JUNCTION      0.00    46.06     0  03:06           0       0.567       2.351
  YS02006561           JUNCTION      0.00    66.97     0  03:05           0       0.785       0.045
  YS02006556           JUNCTION      0.00    46.12     0  03:06           0       0.568       1.662
  YS02006558           JUNCTION     21.58    66.98     0  03:05        0.26       0.808       0.493
  YS02001783           JUNCTION      0.00    66.96     0  03:05           0       0.785       0.105
  YS02001784           JUNCTION      1.06    68.00     0  03:05      0.0299       0.814       0.179
  YS02001786           JUNCTION      0.06    68.05     0  03:06     0.00159       0.814       0.182
  YS02001788           JUNCTION      0.07    68.11     0  03:06       0.002       0.814       0.095
  YS02001790           JUNCTION      0.15    68.26     0  03:06     0.00437       0.818       0.125
  YS02001791           JUNCTION      0.00    68.26     0  03:07           0       0.817       0.062
  YS02001793           JUNCTION      0.00    68.26     0  03:07           0       0.816       0.019
  WS02004139           JUNCTION      0.32   285.35     0  01:30     0.00905        6.45       0.491
  WSC                  OUTFALL       0.00   542.60     0  03:31           0        9.96       0.000
  3                    OUTFALL       0.00   250.55     0  00:00           0       0.105       0.000
  4                    OUTFALL       0.00     0.00     0  00:00           0           0       0.000 ltr
  5                    OUTFALL       0.00     0.00     0  00:00           0           0       0.000 ltr
  JK-storage           STORAGE       0.00    68.26     0  03:07           0       0.967     -38.176
  CC-storage           STORAGE       0.00   100.72     0  03:23           0        1.06      -0.003
  XR-storage           STORAGE     223.44   223.44     0  03:01        5.94        6.54      -0.048
  
  
  **********************
  Node Surcharge Summary
  **********************
  
  No nodes were surcharged.
  
  
  *********************
  Node Flooding Summary
  *********************
  
  No nodes were flooded.
  
  
  **********************
  Storage Volume Summary
  **********************
  
  --------------------------------------------------------------------------------------------------
                         Average     Avg  Evap Exfil       Maximum     Max    Time of Max    Maximum
                          Volume    Pcnt  Pcnt  Pcnt        Volume    Pcnt     Occurrence    Outflow
  Storage Unit           1000 m3    Full  Loss  Loss       1000 m3    Full    days hr:min        LPS
  --------------------------------------------------------------------------------------------------
  JK-storage               0.003       1     0     0         0.151      52       0  00:00     300.00
  CC-storage               0.000       0     0     0         0.010       0       0  05:22     137.59
  XR-storage               0.163      18     0     0         0.612      66       0  00:21     285.00
  
  
  ***********************
  Outfall Loading Summary
  ***********************
  
  -----------------------------------------------------------
                         Flow       Avg       Max       Total
                         Freq      Flow      Flow      Volume
  Outfall Node           Pcnt       LPS       LPS    10^6 ltr
  -----------------------------------------------------------
  WSC                   99.99    382.53    542.60       9.962
  3                     15.69     45.88    250.55       0.105
  4                      0.00      0.00      0.00       0.000
  5                      0.00      0.00      0.00       0.000
  -----------------------------------------------------------
  System                28.92    428.41    549.38      10.067
  
  
  ********************
  Link Flow Summary
  ********************
  
  -----------------------------------------------------------------------------
                                 Maximum  Time of Max   Maximum    Max/    Max/
                                  |Flow|   Occurrence   |Veloc|    Full    Full
  Link                 Type          LPS  days hr:min     m/sec    Flow   Depth
  -----------------------------------------------------------------------------
  WS02003066WSF200     CONDUIT    239.86     0  03:53      2.32    0.04    0.15
  WS02006287WS02006284 CONDUIT     48.72     0  02:38      0.95    0.02    0.12
  WS02006284WS02006280 CONDUIT     48.81     0  02:39      1.22    0.02    0.10
  WS02006280WS02006229 CONDUIT     48.81     0  02:39      1.93    0.01    0.07
  WS02006229WS02006228 CONDUIT    250.54     0  03:19      0.83    0.83    0.79
  WS02006256WS02006235 CONDUIT    166.25     0  00:01      2.58    1.76    1.00
  WS02006253WS02006251 CONDUIT     23.52     0  05:27      0.26    0.07    0.43
  WS02006252WS02006251 CONDUIT    137.18     0  05:26      2.10    0.50    0.61
  WS02006251WS02006249 CONDUIT    121.78     0  05:26      0.80    0.35    0.42
  WS02006249WS02006248 CONDUIT    113.45     0  05:27      0.89    0.62    0.37
  WS02006248WS02006247 CONDUIT    110.61     0  05:27      0.86    0.24    0.37
  WS02006247WS02006245 CONDUIT    107.06     0  05:27      0.81    0.85    0.39
  WS02006245WS02006243 CONDUIT    105.66     0  05:28      0.96    0.31    0.38
  WS02006243WS02006242 CONDUIT    106.21     0  03:22      0.75    0.23    0.46
  WS02006242WS02006240 CONDUIT    109.89     0  03:21      0.64    0.44    0.54
  WS02006240WS02006239 CONDUIT    113.89     0  03:21      0.63    0.36    0.54
  WS02006239WS02006238 CONDUIT    117.95     0  03:20      0.67    0.38    0.65
  WS02006238WS02006235 CONDUIT    119.73     0  03:20      1.25    0.27    0.69
  WS02006235WS02006234 CONDUIT    211.33     0  03:18      0.93    2.23    0.63
  WS02006234WS02006232 CONDUIT    210.81     0  03:18      1.13    0.43    0.70
  WS02006232WS02006231 CONDUIT    210.49     0  03:18      0.77    0.44    0.67
  WS02006231WS02006230 CONDUIT    210.22     0  03:19      1.11    3.19    0.49
  WS02006230WS02006229 CONDUIT    220.33     0  03:19      0.86    4.90    0.85
  WS02006228WS02006109 CONDUIT    250.15     0  03:19      0.75    1.09    0.83
  WS02006116WS02004401 CONDUIT    245.43     0  03:21      0.73    0.34    0.60
  WS02006115WS02006116 CONDUIT    247.21     0  03:21      0.79    0.32    0.51
  WS02006113WS02006111 CONDUIT    252.64     0  03:20      1.90    0.30    0.31
  WS02006112WS02006115 CONDUIT    249.35     0  03:21      0.48    0.15    0.63
  WS02006111WS02006112 CONDUIT    250.55     0  03:20      1.32    0.12    0.59
  WS02006110WS02006113 CONDUIT    250.78     0  03:20      0.77    0.23    0.62
  WS02006109WS02006110 CONDUIT    251.10     0  03:19      0.59    0.48    0.79
  WS02004411WS02004412 CONDUIT    240.00     0  03:52      0.63    0.34    0.49
  WS02004401WS02004402 CONDUIT    243.89     0  03:22      0.77    0.29    0.63
  WS02004413WS02003067 CONDUIT    239.86     0  03:53      0.72    0.10    0.44
  WS02004412WS02004413 CONDUIT    239.90     0  03:52      0.50    0.16    0.58
  WS02004410WS02004411 CONDUIT    240.14     0  03:51      0.67    0.33    0.47
  WS02004409WS02004410 CONDUIT    240.34     0  03:50      0.73    0.31    0.44
  WS02004407WS02004409 CONDUIT    240.58     0  03:49      1.16    0.09    0.31
  WS02004406WS02004407 CONDUIT    240.59     0  03:49      0.64    0.11    0.48
  WS02004405WS02004406 CONDUIT    240.92     0  03:23      0.66    0.48    0.76
  WS02004404WS02004405 CONDUIT    241.46     0  03:22      0.84    2.37    0.75
  WS02004403WS02004404 CONDUIT    241.81     0  03:22      0.74    0.17    0.71
  WS02004402WS02004403 CONDUIT    242.72     0  03:22      0.75    0.35    0.66
  WS02004139WS02001211 CONDUIT    285.47     0  03:39      0.69    0.36    0.51
  WS02004138WS02004139 CONDUIT    285.03     0  01:30      2.94    0.06    0.38
  WS02003067WS02003066 CONDUIT    239.86     0  03:53      0.77    0.08    0.32
  WS02001213WS02003059 CONDUIT    293.52     0  03:38      0.65    0.48    0.65
  WS02001212WS02001213 CONDUIT    293.17     0  03:38      1.19    0.45    0.36
  WS02001211WS02001212 CONDUIT    293.00     0  03:39      0.67    0.22    0.55
  WS02003072WS02003073 CONDUIT    540.80     0  03:30      1.42    1.17    0.37
  WS02003069WS02003072 CONDUIT    540.81     0  03:30      1.36    0.26    0.38
  WS02003060WS02003069 CONDUIT    540.52     0  03:29      1.63    0.21    0.33
  WS02003059WS02003060 CONDUIT    294.03     0  03:37      0.82    0.19    0.53
  HS02004901HS02004770 CONDUIT      1.98     0  02:32      0.02    0.01    0.19
  HS02004876HS02004881 CONDUIT      6.63     0  02:37      0.22    0.07    0.04
  HS02004870HS02004876 CONDUIT      5.22     0  02:34      0.16    0.00    0.05
  HS02004842HS02004848 CONDUIT      1.68     0  02:40      0.01    0.00    0.25
  HS02004837HS02004842 CONDUIT      4.47     0  00:03      0.41    0.00    0.26
  HS02004830HS02004837 CONDUIT     10.61     0  02:32      0.31    0.01    0.05
  HS02004824HS02004830 CONDUIT     10.76     0  02:33      0.36    0.01    0.04
  HS02004817HS02004824 CONDUIT     13.83     0  02:35      0.17    0.01    0.33
  HS02004770HS02004777 CONDUIT     10.20     0  02:33      0.07    0.02    0.21
  HS02004799HS02004480 CONDUIT     26.88     0  02:36      0.25    0.03    0.15
  HS02004792HS02004799 CONDUIT     24.68     0  02:35      0.29    0.02    0.12
  HS02004788HS02004792 CONDUIT     14.74     0  02:38      0.47    0.01    0.04
  HS02004785HS02004788 CONDUIT     10.07     0  02:38      0.24    0.08    0.06
  HS02004777HS02004785 CONDUIT      9.98     0  02:36      0.09    0.01    0.16
  HS02004480HS02004478 CONDUIT     31.54     0  02:37      0.49    0.13    0.09
  HS02004479HS02004480 CONDUIT      4.73     0  02:41      0.16    0.00    0.16
  HS02004862HS02004870 CONDUIT      3.68     0  02:36      0.24    0.00    0.02
  HS02004848HS02004852 CONDUIT      1.05     0  02:35      0.14    0.00    0.01
  HS02004856HS02004862 CONDUIT      2.19     0  02:35      0.16    0.00    0.02
  HS02004852HS02004856 CONDUIT      1.04     0  02:37      0.02    0.00    0.06
  HS02004802HS02004478 CONDUIT     17.21     0  02:39      0.15    0.02    0.16
  HS02004478WS02006287 CONDUIT     48.73     0  02:38      0.67    0.01    0.08
  HS02004817HS02004807 CONDUIT     14.42     0  02:40      0.05    0.01    0.41
  HS02004807HS02004802 CONDUIT     17.20     0  02:37      0.19    0.03    0.20
  YS02001759YS02001757 CONDUIT     41.10     0  03:10      0.12    0.03    0.73
  YS02001762YS02001759 CONDUIT     37.94     0  07:07      0.17    0.04    0.66
  YS02001765YS02001762 CONDUIT     25.36     0  03:22      0.22    0.02    0.62
  YS02001770YS02001767 CONDUIT     23.68     0  07:06      0.25    0.09    0.55
  YS02001774YS02001770 CONDUIT     12.31     0  07:48      0.13    0.01    0.57
  YS02001779YS02001774 CONDUIT      8.73     0  07:27      0.02    0.00    0.49
  YS02001649YS02001757 CONDUIT     60.81     0  03:19      0.10    0.04    0.72
  YS02001767YS02001765 CONDUIT     35.75     0  07:07      0.26    0.04    0.58
  YS02006561YS02001783 CONDUIT     66.96     0  03:05      1.19    0.03    0.17
  YS02001783YS02001784 CONDUIT     66.94     0  03:05      0.75    0.09    0.23
  YS02001784YS02001785 CONDUIT     67.99     0  03:06      0.75    0.16    0.24
  YS02001788YS02001790 CONDUIT     68.11     0  03:06      1.21    0.05    0.17
  YS02001790YS02001791 CONDUIT     68.26     0  03:07      1.38    0.07    0.15
  YS02001791YS02001793 CONDUIT     68.26     0  03:07      2.47    0.03    0.10
  YS02001910YS02001907 CONDUIT     21.36     0  03:04      0.49    0.01    0.52
  YS02001786YS02001788 CONDUIT     68.04     0  03:06      1.06    0.13    0.19
  YS02001915YS02001910 CONDUIT     21.43     0  03:01      0.44    0.01    0.31
  YS02001918YS02001915 CONDUIT      8.54     0  03:07      0.44    0.00    0.13
  YS02001923YS02001920 CONDUIT      5.68     0  03:04      0.18    0.00    0.08
  YS02001926YS02001923 CONDUIT      5.65     0  03:03      0.25    0.01    0.07
  YS02001929YS02001926 CONDUIT      5.62     0  03:01      0.26    0.00    0.07
  YS02001920YS02001918 CONDUIT      8.55     0  03:05      0.25    0.01    0.09
  YS02001629YS02163301 CONDUIT     17.04     0  03:10      0.06    0.02    0.51
  YS02001619YS02001622 CONDUIT     13.32     0  03:08      0.41    0.02    0.14
  YS02001622YS02001625 CONDUIT     15.18     0  03:07      0.14    0.01    0.29
  YS02001625YS02001629 CONDUIT     15.90     0  03:10      0.10    0.01    0.28
  YS02163301YS02001633 CONDUIT     17.27     0  03:17      0.05    0.02    0.56
  YS02163601YS02164001 CONDUIT     32.93     0  03:09      0.07    0.03    0.62
  YS02164001YS02001641 CONDUIT     33.22     0  03:09      0.07    0.05    0.60
  YS02001641YS02001644 CONDUIT     31.52     0  03:09      0.08    0.10    0.61
  YS02001647YS02001649 CONDUIT     44.49     0  03:18      0.11    0.02    0.54
  YS02006553YS02006556 CONDUIT     46.12     0  03:06      0.18    0.04    0.61
  YS02006556YS02006558 CONDUIT     46.12     0  03:07      0.09    0.04    0.63
  YSB6556YSB1171       CONDUIT      2.57     0  02:39      0.03    0.00    0.43
  YS02001907YS02006553 CONDUIT     46.06     0  03:06      0.07    0.05    0.69
  YS02006558YS02006561 CONDUIT     66.97     0  03:05      1.50    0.15    0.21
  YS02001633YS02163601 CONDUIT     31.86     0  03:09      0.06    0.03    0.61
  YS02001644YS02001647 CONDUIT     46.02     0  03:18      0.11    0.03    0.52
  YS02001745YS02001748 CONDUIT     14.21     0  03:01      0.88    0.01    0.05
  YS02001748YS02001751 CONDUIT     14.25     0  03:01      0.74    0.01    0.11
  YS02001751YS02001754 CONDUIT     31.15     0  05:31      0.69    0.02    0.28
  YS02001754YS02001757 CONDUIT     69.80     0  05:38      0.33    0.03    0.61
  YS02001882YS02001884 CONDUIT      1.15     0  02:13      0.06    0.00    0.24
  YS02001884YS02001887 CONDUIT      3.66     0  02:09      0.04    0.00    0.33
  YS02001890YS02001895 CONDUIT     24.82     0  03:02      0.12    0.01    0.31
  YS02001895YS02001898 CONDUIT     24.78     0  03:01      0.32    0.04    0.17
  YS02001898YS02001901 CONDUIT     24.88     0  03:03      0.16    0.02    0.25
  YS02001901YS02001904 CONDUIT     24.77     0  03:04      0.18    0.04    0.30
  YS02001904YS02001907 CONDUIT     24.82     0  03:04      0.07    0.01    0.46
  YS02001887YS02001890 CONDUIT     24.98     0  03:00      0.10    0.04    0.39
  YS02001652YS02001649 CONDUIT     23.74     0  07:09      0.22    0.01    0.55
  YS02001655YS02001652 CONDUIT     20.08     0  03:06      0.74    0.01    0.31
  YS02001658YS02001655 CONDUIT     17.53     0  03:01      0.83    0.01    0.13
  YS02001661YS02001658 CONDUIT     17.53     0  03:01      0.91    0.01    0.06
  YS02001664YS02001661 CONDUIT     17.54     0  03:01      0.49    0.01    0.09
  YSB1154YSB6556       CONDUIT      2.60     0  02:33      0.19    0.00    0.32
  YSB1174YSB1171       CONDUIT      2.47     0  02:24      0.02    0.00    0.43
  YSB1171HS02004479    CONDUIT      4.70     0  02:38      0.54    0.00    0.32
  HS02004881HS02006253 CONDUIT      7.47     0  02:36      0.87    0.00    0.01
  YS02001793JiankangQianchi CONDUIT     68.26     0  03:07      8.37    0.01    0.50
  YS02001757CaochengTiaoxuchi CONDUIT    100.72     0  03:23      0.35    0.04    0.39
  WSF200WS02003060     CONDUIT    239.86     0  03:54      1.26    0.05    0.23
  1                    CONDUIT    542.60     0  03:31      2.81    0.19    0.29
  2                    CONDUIT      0.00     0  00:00      0.00    0.00    0.00
  3                    CONDUIT    250.55     0  00:00      8.26    0.40    0.46
  4                    CONDUIT      0.00     0  00:00      0.00    0.00    0.00
  CC-Pump-1            PUMP         0.00     0  00:00              0.00
  CC-Pump-2            PUMP       137.59     0  05:26              0.69
  JK-Pump-1            PUMP        68.26     0  03:07              0.23
  JK-Pump-2            PUMP       300.00     0  00:00              1.00
  XR-Pump-1            PUMP        95.00     0  00:50              1.00
  XR-Pump-2            PUMP         0.00     0  00:00              0.00
  XR-Pump-3            PUMP        95.00     0  00:00              1.00
  XR-Pump-4            PUMP        95.00     0  00:00              1.00
  
  
  ***************************
  Flow Classification Summary
  ***************************
  
  -------------------------------------------------------------------------------------
                      Adjusted    ---------- Fraction of Time in Flow Class ---------- 
                       /Actual         Up    Down  Sub   Sup   Up    Down  Norm  Inlet 
  Conduit               Length    Dry  Dry   Dry   Crit  Crit  Crit  Crit  Ltd   Ctrl  
  -------------------------------------------------------------------------------------
  WS02003066WSF200        1.00   0.10  0.00  0.00  0.00  0.90  0.00  0.00  0.77  0.00
  WS02006287WS02006284    1.00   0.07  0.03  0.00  0.82  0.08  0.00  0.00  0.81  0.00
  WS02006284WS02006280    1.00   0.08  0.00  0.00  0.00  0.00  0.00  0.92  0.00  0.00
  WS02006280WS02006229    1.00   0.08  0.00  0.00  0.00  0.00  0.00  0.92  0.00  0.00
  WS02006229WS02006228    1.00   0.00  0.00  0.00  0.98  0.00  0.00  0.02  0.00  0.00
  WS02006256WS02006235    1.00   0.00  0.00  0.00  0.99  0.01  0.00  0.00  0.00  0.00
  WS02006253WS02006251    1.00   0.05  0.02  0.00  0.92  0.00  0.00  0.00  0.00  0.00
  WS02006252WS02006251    1.00   0.18  0.00  0.00  0.00  0.00  0.82  0.00  0.00  0.00
  WS02006251WS02006249    1.00   0.00  0.00  0.00  1.00  0.00  0.00  0.00  0.39  0.00
  WS02006249WS02006248    1.00   0.00  0.04  0.00  0.76  0.00  0.21  0.00  0.00  0.00
  WS02006248WS02006247    1.00   0.04  0.00  0.00  0.96  0.00  0.00  0.00  0.40  0.00
  WS02006247WS02006245    1.00   0.04  0.00  0.00  0.96  0.00  0.00  0.00  0.00  0.00
  WS02006245WS02006243    1.00   0.02  0.01  0.00  0.90  0.00  0.00  0.07  0.04  0.00
  WS02006243WS02006242    1.00   0.01  0.01  0.00  0.98  0.00  0.00  0.00  0.61  0.00
  WS02006242WS02006240    1.00   0.01  0.00  0.00  0.99  0.00  0.00  0.00  0.00  0.00
  WS02006240WS02006239    1.00   0.00  0.00  0.00  0.91  0.00  0.00  0.08  0.02  0.00
  WS02006239WS02006238    1.00   0.00  0.00  0.00  1.00  0.00  0.00  0.00  0.00  0.00
  WS02006238WS02006235    1.00   0.00  0.00  0.00  1.00  0.00  0.00  0.00  0.00  0.00
  WS02006235WS02006234    1.00   0.00  0.00  0.00  0.91  0.00  0.09  0.00  0.00  0.00
  WS02006234WS02006232    1.00   0.00  0.00  0.00  1.00  0.00  0.00  0.00  0.08  0.00
  WS02006232WS02006231    1.00   0.00  0.00  0.00  0.99  0.00  0.01  0.00  0.00  0.00
  WS02006231WS02006230    1.00   0.01  0.00  0.00  0.00  0.00  0.99  0.00  0.00  0.00
  WS02006230WS02006229    1.00   0.00  0.00  0.00  0.97  0.00  0.00  0.03  0.01  0.00
  WS02006228WS02006109    1.00   0.00  0.00  0.00  0.99  0.00  0.00  0.01  0.00  0.00
  WS02006116WS02004401    1.00   0.04  0.00  0.00  0.96  0.00  0.00  0.00  0.00  0.00
  WS02006115WS02006116    1.00   0.04  0.00  0.00  0.95  0.00  0.00  0.01  0.00  0.00
  WS02006113WS02006111    1.00   0.03  0.00  0.00  0.00  0.96  0.00  0.00  0.16  0.00
  WS02006112WS02006115    1.00   0.04  0.01  0.00  0.95  0.00  0.00  0.00  0.00  0.00
  WS02006111WS02006112    1.00   0.04  0.00  0.00  0.96  0.00  0.00  0.00  0.98  0.00
  WS02006110WS02006113    1.00   0.02  0.01  0.00  0.97  0.00  0.00  0.00  0.00  0.00
  WS02006109WS02006110    1.00   0.00  0.02  0.00  0.97  0.00  0.01  0.00  0.00  0.00
  WS02004411WS02004412    1.00   0.07  0.00  0.00  0.93  0.00  0.00  0.00  0.00  0.00
  WS02004401WS02004402    1.00   0.04  0.00  0.00  0.96  0.00  0.00  0.00  0.00  0.00
  WS02004413WS02003067    1.00   0.07  0.02  0.00  0.00  0.00  0.90  0.00  0.00  0.00
  WS02004412WS02004413    1.00   0.07  0.00  0.00  0.93  0.00  0.00  0.00  0.03  0.00
  WS02004410WS02004411    1.00   0.07  0.00  0.00  0.93  0.00  0.00  0.00  0.04  0.00
  WS02004409WS02004410    1.00   0.07  0.00  0.00  0.93  0.00  0.00  0.00  0.04  0.00
  WS02004407WS02004409    1.00   0.07  0.00  0.00  0.93  0.00  0.00  0.00  0.89  0.00
  WS02004406WS02004407    1.00   0.00  0.07  0.00  0.93  0.00  0.00  0.00  0.00  0.00
  WS02004405WS02004406    1.00   0.00  0.00  0.00  1.00  0.00  0.00  0.00  0.00  0.00
  WS02004404WS02004405    1.00   0.00  0.00  0.00  1.00  0.00  0.00  0.00  0.00  0.00
  WS02004403WS02004404    1.00   0.00  0.05  0.00  0.95  0.00  0.00  0.00  0.01  0.00
  WS02004402WS02004403    1.00   0.05  0.00  0.00  0.95  0.00  0.00  0.00  0.00  0.00
  WS02004139WS02001211    1.00   0.00  0.00  0.00  0.99  0.00  0.01  0.00  0.00  0.00
  WS02004138WS02004139    1.00   0.00  0.00  0.00  0.98  0.01  0.00  0.00  1.00  0.00
  WS02003067WS02003066    1.00   0.10  0.01  0.00  0.90  0.00  0.00  0.00  0.00  0.00
  WS02001213WS02003059    1.00   0.00  0.01  0.00  0.99  0.00  0.00  0.00  0.00  0.00
  WS02001212WS02001213    1.00   0.01  0.00  0.00  0.23  0.00  0.76  0.00  0.00  0.00
  WS02001211WS02001212    1.00   0.00  0.01  0.00  0.99  0.00  0.00  0.00  0.00  0.00
  WS02003072WS02003073    1.00   0.00  0.00  0.00  0.00  0.00  0.00  1.00  0.00  0.00
  WS02003069WS02003072    1.00   0.00  0.00  0.00  0.99  0.01  0.00  0.00  0.57  0.00
  WS02003060WS02003069    1.00   0.00  0.00  0.00  0.98  0.02  0.00  0.00  0.19  0.00
  WS02003059WS02003060    1.00   0.00  0.00  0.00  0.99  0.01  0.00  0.00  0.01  0.00
  HS02004901HS02004770    1.00   0.08  0.00  0.00  0.92  0.00  0.00  0.00  0.04  0.00
  HS02004876HS02004881    1.00   0.04  0.00  0.00  0.96  0.00  0.00  0.00  0.00  0.00
  HS02004870HS02004876    1.00   0.01  0.00  0.00  0.99  0.00  0.00  0.00  0.95  0.00
  HS02004842HS02004848    1.00   0.00  0.08  0.00  0.92  0.00  0.00  0.00  0.76  0.00
  HS02004837HS02004842    1.00   0.00  0.00  0.00  0.99  0.01  0.00  0.00  0.11  0.00
  HS02004830HS02004837    1.00   0.00  0.00  0.00  1.00  0.00  0.00  0.00  0.99  0.00
  HS02004824HS02004830    1.00   0.00  0.00  0.00  1.00  0.00  0.00  0.00  0.00  0.00
  HS02004817HS02004824    1.00   0.00  0.00  0.00  1.00  0.00  0.00  0.00  1.00  0.00
  HS02004770HS02004777    1.00   0.00  0.08  0.00  0.92  0.00  0.00  0.00  0.08  0.00
  HS02004799HS02004480    1.00   0.01  0.04  0.00  0.90  0.00  0.05  0.00  0.00  0.00
  HS02004792HS02004799    1.00   0.00  0.00  0.00  0.98  0.02  0.00  0.00  0.98  0.00
  HS02004788HS02004792    1.00   0.00  0.00  0.00  0.98  0.02  0.00  0.00  0.98  0.00
  HS02004785HS02004788    1.00   0.00  0.00  0.00  1.00  0.00  0.00  0.00  0.00  0.00
  HS02004777HS02004785    1.00   0.00  0.00  0.00  1.00  0.00  0.00  0.00  0.23  0.00
  HS02004480HS02004478    1.00   0.09  0.00  0.00  0.81  0.00  0.00  0.10  0.00  0.00
  HS02004479HS02004480    1.00   0.05  0.00  0.00  0.95  0.00  0.00  0.00  0.17  0.00
  HS02004862HS02004870    1.00   0.00  0.00  0.00  1.00  0.00  0.00  0.00  0.06  0.00
  HS02004848HS02004852    1.00   0.08  0.00  0.00  0.92  0.00  0.00  0.00  0.67  0.00
  HS02004856HS02004862    1.00   0.00  0.13  0.00  0.87  0.00  0.00  0.00  0.71  0.00
  HS02004852HS02004856    1.00   0.08  0.01  0.00  0.91  0.00  0.00  0.00  0.81  0.00
  HS02004802HS02004478    1.00   0.08  0.01  0.00  0.91  0.00  0.00  0.00  0.00  0.00
  HS02004478WS02006287    1.00   0.09  0.00  0.00  0.90  0.00  0.00  0.00  0.81  0.00
  HS02004817HS02004807    1.00   0.00  0.08  0.00  0.92  0.00  0.00  0.00  0.00  0.00
  HS02004807HS02004802    1.00   0.08  0.00  0.00  0.92  0.00  0.00  0.00  0.01  0.00
  YS02001759YS02001757    1.00   0.00  0.00  0.00  1.00  0.00  0.00  0.00  0.17  0.00
  YS02001762YS02001759    1.00   0.00  0.00  0.00  1.00  0.00  0.00  0.00  0.06  0.00
  YS02001765YS02001762    1.00   0.00  0.00  0.00  1.00  0.00  0.00  0.00  0.24  0.00
  YS02001770YS02001767    1.00   0.00  0.00  0.00  1.00  0.00  0.00  0.00  0.00  0.00
  YS02001774YS02001770    1.00   0.00  0.09  0.00  0.90  0.00  0.00  0.00  0.07  0.00
  YS02001779YS02001774    1.00   0.00  0.00  0.00  1.00  0.00  0.00  0.00  0.30  0.00
  YS02001649YS02001757    1.00   0.00  0.00  0.00  1.00  0.00  0.00  0.00  0.20  0.00
  YS02001767YS02001765    1.00   0.00  0.00  0.00  1.00  0.00  0.00  0.00  0.01  0.00
  YS02006561YS02001783    1.00   0.13  0.00  0.00  0.00  0.87  0.00  0.00  0.70  0.00
  YS02001783YS02001784    1.00   0.00  0.13  0.00  0.87  0.00  0.00  0.00  0.47  0.00
  YS02001784YS02001785    1.00   0.00  0.00  0.00  1.00  0.00  0.00  0.00  0.28  0.00
  YS02001788YS02001790    1.00   0.00  0.00  0.00  0.13  0.87  0.00  0.00  1.00  0.00
  YS02001790YS02001791    1.00   0.00  0.00  0.00  0.03  0.97  0.00  0.00  0.00  0.00
  YS02001791YS02001793    1.00   0.00  0.00  0.00  0.00  1.00  0.00  0.00  0.00  0.00
  YS02001910YS02001907    1.00   0.00  0.00  0.00  0.95  0.00  0.00  0.04  0.13  0.00
  YS02001786YS02001788    1.00   0.00  0.00  0.00  0.58  0.42  0.00  0.00  0.00  0.00
  YS02001915YS02001910    1.00   0.00  0.00  0.00  0.98  0.02  0.00  0.00  0.26  0.00
  YS02001918YS02001915    1.00   0.00  0.01  0.00  0.96  0.03  0.00  0.00  0.79  0.00
  YS02001923YS02001920    1.00   0.00  0.00  0.00  1.00  0.00  0.00  0.00  1.00  0.00
  YS02001926YS02001923    1.00   0.00  0.06  0.00  0.00  0.00  0.94  0.00  0.00  0.00
  YS02001929YS02001926    1.00   0.00  0.08  0.00  0.92  0.00  0.00  0.00  0.86  0.00
  YS02001920YS02001918    1.00   0.00  0.01  0.00  0.99  0.00  0.00  0.00  0.00  0.00
  YS02001629YS02163301    1.00   0.11  0.01  0.00  0.88  0.00  0.00  0.00  0.00  0.00
  YS02001619YS02001622    1.00   0.08  0.00  0.00  0.92  0.00  0.00  0.00  0.00  0.00
  YS02001622YS02001625    1.00   0.08  0.00  0.00  0.92  0.00  0.00  0.00  0.16  0.00
  YS02001625YS02001629    1.00   0.08  0.06  0.00  0.83  0.00  0.04  0.00  0.00  0.00
  YS02163301YS02001633    1.00   0.00  0.11  0.00  0.89  0.00  0.00  0.00  0.00  0.00
  YS02163601YS02164001    1.00   0.00  0.06  0.00  0.94  0.00  0.00  0.00  0.00  0.00
  YS02164001YS02001641    1.00   0.02  0.05  0.00  0.94  0.00  0.00  0.00  0.07  0.00
  YS02001641YS02001644    1.00   0.00  0.01  0.00  0.99  0.00  0.00  0.00  0.00  0.00
  YS02001647YS02001649    1.00   0.00  0.13  0.00  0.87  0.00  0.00  0.00  0.01  0.00
  YS02006553YS02006556    1.00   0.03  0.00  0.00  0.97  0.00  0.00  0.00  0.03  0.00
  YS02006556YS02006558    1.00   0.00  0.01  0.00  0.99  0.00  0.00  0.00  0.00  0.00
  YSB6556YSB1171          1.00   0.05  0.03  0.00  0.93  0.00  0.00  0.00  0.00  0.00
  YS02001907YS02006553    1.00   0.00  0.04  0.00  0.96  0.00  0.00  0.00  0.00  0.00
  YS02006558YS02006561    1.00   0.13  0.00  0.00  0.00  0.87  0.00  0.00  0.57  0.00
  YS02001633YS02163601    1.00   0.00  0.01  0.00  0.99  0.00  0.00  0.00  0.21  0.00
  YS02001644YS02001647    1.00   0.00  0.13  0.00  0.87  0.00  0.00  0.00  0.00  0.00
  YS02001745YS02001748    1.00   0.00  0.00  0.00  0.00  0.00  0.00  1.00  0.00  0.00
  YS02001748YS02001751    1.00   0.00  0.00  0.00  0.94  0.06  0.00  0.00  0.87  0.00
  YS02001751YS02001754    1.00   0.00  0.00  0.00  0.86  0.00  0.00  0.14  0.05  0.00
  YS02001754YS02001757    1.00   0.00  0.00  0.00  0.99  0.01  0.00  0.00  0.30  0.00
  YS02001882YS02001884    1.00   0.10  0.01  0.00  0.89  0.00  0.00  0.00  0.00  0.00
  YS02001884YS02001887    1.00   0.06  0.02  0.00  0.93  0.00  0.00  0.00  0.00  0.00
  YS02001890YS02001895    1.00   0.00  0.11  0.00  0.88  0.00  0.00  0.00  0.00  0.00
  YS02001895YS02001898    1.00   0.12  0.00  0.00  0.87  0.00  0.01  0.00  0.00  0.00
  YS02001898YS02001901    1.00   0.11  0.01  0.00  0.88  0.00  0.00  0.00  0.02  0.00
  YS02001901YS02001904    1.00   0.11  0.00  0.00  0.89  0.00  0.00  0.00  0.00  0.00
  YS02001904YS02001907    1.00   0.00  0.10  0.00  0.89  0.00  0.00  0.00  0.00  0.00
  YS02001887YS02001890    1.00   0.00  0.00  0.00  0.95  0.00  0.04  0.00  0.00  0.00
  YS02001652YS02001649    1.00   0.00  0.00  0.00  1.00  0.00  0.00  0.00  0.29  0.00
  YS02001655YS02001652    1.00   0.00  0.00  0.00  0.86  0.00  0.00  0.14  0.05  0.00
  YS02001658YS02001655    1.00   0.00  0.10  0.00  0.84  0.06  0.00  0.00  0.79  0.00
  YS02001661YS02001658    1.00   0.10  0.00  0.00  0.00  0.90  0.00  0.00  0.73  0.00
  YS02001664YS02001661    1.00   0.08  0.00  0.00  0.92  0.00  0.00  0.00  0.86  0.00
  YSB1154YSB6556          1.00   0.07  0.00  0.00  0.93  0.00  0.00  0.00  0.02  0.00
  YSB1174YSB1171          1.00   0.05  0.01  0.00  0.93  0.00  0.00  0.00  0.00  0.00
  YSB1171HS02004479       1.00   0.05  0.00  0.00  0.95  0.00  0.00  0.00  0.14  0.00
  HS02004881HS02006253    1.00   0.05  0.00  0.00  0.00  0.00  0.00  0.95  0.00  0.00
  YS02001793JiankangQianchi    1.00   0.00  0.00  0.00  0.05  0.95  0.00  0.00  0.04  0.00
  YS02001757CaochengTiaoxuchi    1.00   0.00  0.18  0.00  0.82  0.00  0.00  0.00  0.00  0.00
  WSF200WS02003060        1.00   0.00  0.10  0.00  0.90  0.00  0.00  0.00  0.77  0.00
  1                       1.00   0.00  0.00  0.00  0.00  1.00  0.00  0.00  0.34  0.00
  2                       1.00   1.00  0.00  0.00  0.00  0.00  0.00  0.00  0.00  0.00
  3                       1.00   0.84  0.00  0.00  0.00  0.16  0.00  0.00  0.86  0.00
  4                       1.00   1.00  0.00  0.00  0.00  0.00  0.00  0.00  0.00  0.00
  
  
  *************************
  Conduit Surcharge Summary
  *************************
  
  ----------------------------------------------------------------------------
                                                           Hours        Hours 
                         --------- Hours Full --------   Above Full   Capacity
  Conduit                Both Ends  Upstream  Dnstream   Normal Flow   Limited
  ----------------------------------------------------------------------------
  WS02006256WS02006235        4.70      4.70      7.33      1.40         0.01
  WS02006235WS02006234        0.01      0.01      0.01      4.05         0.01
  WS02006231WS02006230        0.01      0.01      0.01      5.21         0.01
  WS02006230WS02006229        0.01      0.01      0.01      5.48         0.01
  WS02006228WS02006109        0.01      0.01      0.01      0.39         0.01
  WS02004404WS02004405        0.01      0.01      0.01      5.02         0.01
  WS02003072WS02003073        0.01      0.01      0.01      1.25         0.01
  YS02001793JiankangQianchi        0.01      0.01      0.09      0.01         0.01
  
  
  ***************
  Pumping Summary
  ***************
  
  ---------------------------------------------------------------------------------------------------------
                                                  Min       Avg       Max     Total     Power    % Time Off
                        Percent   Number of      Flow      Flow      Flow    Volume     Usage    Pump Curve
  Pump                 Utilized   Start-Ups       LPS       LPS       LPS  10^6 ltr     Kw-hr    Low   High
  ---------------------------------------------------------------------------------------------------------
  CC-Pump-1                0.00           0      0.00      0.00      0.00     0.000      0.00    0.0    0.0
  CC-Pump-2               61.52           5      0.00     64.53    137.59     1.063      4.22    0.0  100.0
  JK-Pump-1               68.07           9      0.00     36.74     68.26     0.575     10.90    0.0    0.0
  JK-Pump-2               97.87           1      0.00     49.35    300.00     0.976     17.79    0.0    0.0
  XR-Pump-1               87.21           6      0.00     63.74     95.00     1.567     32.00    0.0    0.0
  XR-Pump-2                0.00           0      0.00      0.00      0.00     0.000      0.00    0.0    0.0
  XR-Pump-3               97.87           1      0.00     87.93     95.00     2.423     49.10    0.0    0.0
  XR-Pump-4               99.99           4      0.00     86.56     95.00     2.451     49.60    0.0    0.0
  

  Analysis begun on:  Wed Jan  5 21:50:00 2022
  Analysis ended on:  Wed Jan  5 21:50:01 2022
  Total elapsed time: 00:00:01