
  EPA STORM WATER MANAGEMENT MODEL - VERSION 5.1 (Build 5.3.0.dev0)
  --------------------------------------------------------------

  WARNING 04: minimum elevation drop used for Conduit WS02004404WS02004405
  WARNING 03: negative offset ignored for Link YS02001904YS02001907
  
  *********************************************************
  NOTE: The summary statistics displayed in this report are
  based on results found at every computational time step,  
  not just on results from each reporting time step.
  *********************************************************
  
  ****************
  Analysis Options
  ****************
  Flow Units ............... LPS
  Process Models:
    Rainfall/Runoff ........ YES
    RDII ................... NO
    Snowmelt ............... NO
    Groundwater ............ NO
    Flow Routing ........... YES
    Ponding Allowed ........ NO
    Water Quality .......... NO
  Infiltration Method ...... HORTON
  Flow Routing Method ...... DYNWAVE
  Surcharge Method ......... EXTRAN
  Starting Date ............ 08/28/2015 08:00:00
  Ending Date .............. 08/28/2015 15:50:00
  Antecedent Dry Days ...... 8.0
  Report Time Step ......... 00:01:00
  Wet Time Step ............ 00:01:00
  Dry Time Step ............ 00:01:00
  Routing Time Step ........ 5.00 sec
  Variable Time Step ....... YES
  Maximum Trials ........... 8
  Number of Threads ........ 4
  Head Tolerance ........... 0.001500 m
  
  
  **************************        Volume         Depth
  Runoff Quantity Continuity     hectare-m            mm
  **************************     ---------       -------
  Total Precipitation ......         2.984         6.533
  Evaporation Loss .........         0.000         0.000
  Infiltration Loss ........         0.753         1.648
  Surface Runoff ...........         1.324         2.899
  Final Storage ............         0.907         1.987
  Continuity Error (%) .....        -0.018
  
  
  **************************        Volume        Volume
  Flow Routing Continuity        hectare-m      10^6 ltr
  **************************     ---------     ---------
  Dry Weather Inflow .......         0.616         6.165
  Wet Weather Inflow .......         1.323        13.234
  Groundwater Inflow .......         0.000         0.000
  RDII Inflow ..............         0.000         0.000
  External Inflow ..........         0.102         1.024
  External Outflow .........         1.716        17.162
  Flooding Loss ............         0.043         0.431
  Evaporation Loss .........         0.000         0.000
  Exfiltration Loss ........         0.000         0.000
  Initial Stored Volume ....         0.076         0.761
  Final Stored Volume ......         0.499         4.994
  Continuity Error (%) .....        -6.628
  
  
  *************************
  Highest Continuity Errors
  *************************
  Node JK-storage (-35.31%)
  Node HS02004842 (26.48%)
  Node YS02001774 (24.54%)
  Node YS02001884 (20.81%)
  Node YSB1171 (6.19%)
  
  
  ***************************
  Time-Step Critical Elements
  ***************************
  Link WS02006252WS02006251 (60.13%)
  Link 3 (33.45%)
  Link WS02006280WS02006229 (1.94%)
  
  
  ********************************
  Highest Flow Instability Indexes
  ********************************
  Link WS02006113WS02006111 (39)
  Link WS02006111WS02006112 (29)
  Link YS02006558YS02006561 (15)
  Link YS02001779YS02001774 (14)
  Link YS02001774YS02001770 (12)
  
  
  *************************
  Routing Time Step Summary
  *************************
  Minimum Time Step           :     0.39 sec
  Average Time Step           :     0.86 sec
  Maximum Time Step           :     5.00 sec
  Percent in Steady State     :    -0.00
  Average Iterations per Step :     3.48
  Percent Not Converging      :    16.45
  
  
  ***************************
  Subcatchment Runoff Summary
  ***************************
  
  ------------------------------------------------------------------------------------------------------------------------------
                            Total      Total      Total      Total     Imperv       Perv      Total       Total     Peak  Runoff
                           Precip      Runon       Evap      Infil     Runoff     Runoff     Runoff      Runoff   Runoff   Coeff
  Subcatchment                 mm         mm         mm         mm         mm         mm         mm    10^6 ltr      LPS
  ------------------------------------------------------------------------------------------------------------------------------
  sub0                       6.53       0.00       0.00       0.46       4.81       0.00       4.81        0.00     1.70   0.736
  sub1                       6.53       0.00       0.00       0.72       4.56       0.00       4.56        0.03     8.92   0.698
  sub2                       6.53       0.00       0.00       2.42       3.21       0.00       3.21        0.03     7.90   0.491
  sub3                       6.53       0.00       0.00       2.42       3.17       0.00       3.17        0.07    16.25   0.486
  sub4                       6.53       0.00       0.00       0.72       4.42       0.00       4.42        0.09    18.23   0.676
  sub5                       6.53       0.00       0.00       0.46       4.76       0.00       4.76        0.05    15.87   0.729
  sub7                       6.53       0.00       0.00       0.59       4.69       0.00       4.69        0.02     5.60   0.718
  sub8                       6.53       0.00       0.00       0.59       4.68       0.00       4.68        0.03     9.88   0.717
  sub9                       6.53       0.00       0.00       0.59       4.68       0.00       4.68        0.02     7.33   0.716
  sub10                      6.53       0.00       0.00       0.52       4.72       0.00       4.72        0.05    15.85   0.722
  sub11                      6.53       0.00       0.00       0.52       4.74       0.00       4.74        0.06    18.60   0.725
  sub12                      6.53       0.00       0.00       0.85       4.49       0.00       4.49        0.04    15.74   0.688
  sub14                      6.53       0.00       0.00       0.59       4.68       0.00       4.68        0.04    14.32   0.716
  sub15                      6.53       0.00       0.00       1.96       3.59       0.00       3.59        0.06    19.42   0.550
  sub16                      6.53       0.00       0.00       2.16       3.46       0.00       3.46        0.04    13.85   0.529
  sub17                      6.53       0.00       0.00       2.09       3.51       0.00       3.51        0.03    11.18   0.537
  sub22                      6.53       0.00       0.00       2.81       2.94       0.00       2.94        0.19    63.64   0.449
  sub23                      6.53       0.00       0.00       2.42       3.25       0.00       3.25        0.15    54.16   0.497
  sub60                      6.53       0.00       0.00       0.78       3.24       0.00       3.24        0.98    93.37   0.497
  sub61                      6.53       0.00       0.00       1.11       3.44       0.00       3.44        1.06   116.86   0.527
  sub62                      6.53       0.00       0.00       0.52       3.70       0.00       3.70        1.14   119.50   0.567
  sub63                      6.53       0.00       0.00       1.89       3.06       0.00       3.06        0.93   108.99   0.468
  sub64                      6.53       0.00       0.00       0.98       3.10       0.00       3.10        0.94    88.71   0.475
  sub65                      6.53       0.00       0.00       0.85       3.14       0.00       3.14        0.97    90.05   0.481
  sub66                      6.53       0.00       0.00       1.89       2.70       0.00       2.70        0.83    81.23   0.414
  sub67                      6.53       0.00       0.00       0.52       4.05       0.00       4.05        1.25   153.14   0.619
  sub68                      6.53       0.00       0.00       0.91       3.66       0.00       3.66        1.13   129.14   0.560
  sub69                      6.53       0.00       0.00       0.98       3.92       0.00       3.92        0.92   128.07   0.601
  sub70                      6.53       4.01       0.00       3.58       4.89       0.00       4.89        1.12   104.96   0.464
  sub71                      6.53       0.00       0.00       0.52       3.55       0.00       3.55        0.84    83.47   0.543
  sub72                      6.53       0.00       0.00       0.46       2.55       0.00       2.55        0.52    39.79   0.390
  sub73                      6.53       4.76       0.00       3.84       5.03       0.00       5.03        1.18    90.59   0.445
  sub74                      6.53       0.00       0.00       4.90       1.18       0.00       1.18        0.47    71.42   0.181
  
  
  ******************
  Node Depth Summary
  ******************
  
  ---------------------------------------------------------------------------------
                                 Average  Maximum  Maximum  Time of Max    Reported
                                   Depth    Depth      HGL   Occurrence   Max Depth
  Node                 Type       Meters   Meters   Meters  days hr:min      Meters
  ---------------------------------------------------------------------------------
  WS02001211           JUNCTION     0.65     0.72     5.56     0  02:43        0.72
  WS02001212           JUNCTION     0.38     0.44     5.51     0  02:43        0.44
  WS02001213           JUNCTION     0.61     0.70     5.46     0  02:42        0.70
  WS02003069           JUNCTION     0.43     0.54     5.13     0  02:41        0.54
  WS02003072           JUNCTION     0.50     0.60     4.97     0  02:42        0.60
  WS02003073           JUNCTION     0.30     0.37     4.43     0  02:42        0.37
  WS02003060           JUNCTION     0.39     0.48     5.41     0  02:40        0.48
  WS02003066           JUNCTION     0.23     0.29     5.85     0  02:38        0.29
  WS02003059           JUNCTION     0.67     0.76     5.45     0  02:41        0.76
  WS02003067           JUNCTION     0.57     0.70     6.02     0  02:38        0.70
  WS02004401           JUNCTION     0.67     0.84     6.84     0  02:33        0.84
  WS02004402           JUNCTION     0.70     0.87     6.83     0  02:33        0.87
  WS02004403           JUNCTION     0.72     0.88     6.81     0  02:32        0.88
  WS02004404           JUNCTION     0.80     0.96     6.81     0  02:32        0.95
  WS02004406           JUNCTION     0.80     0.95     6.78     0  02:32        0.95
  WS02004409           JUNCTION     0.49     0.66     6.43     0  02:36        0.66
  WS02004410           JUNCTION     0.51     0.67     6.39     0  02:37        0.67
  WS02004411           JUNCTION     0.52     0.68     6.36     0  02:37        0.68
  WS02004412           JUNCTION     0.54     0.69     6.33     0  02:37        0.69
  WS02004413           JUNCTION     0.69     0.85     6.32     0  02:37        0.85
  WS02004405           JUNCTION     0.79     0.95     6.80     0  02:32        0.95
  WS02006109           JUNCTION     0.75     0.95     7.57     0  02:29        0.95
  WS02006110           JUNCTION     0.74     0.91     7.50     0  02:29        0.91
  WS02006111           JUNCTION     0.22     0.28     6.99     0  02:31        0.28
  WS02006112           JUNCTION     0.84     1.04     6.92     0  02:31        1.03
  WS02006113           JUNCTION     0.34     0.45     7.34     0  02:30        0.45
  WS02006115           JUNCTION     0.56     0.74     6.88     0  02:32        0.74
  WS02006116           JUNCTION     0.64     0.82     6.86     0  02:32        0.82
  WS02006230           JUNCTION     0.71     0.98     7.73     0  02:31        0.98
  WS02006231           JUNCTION     0.47     0.65     7.77     0  02:33        0.65
  WS02006232           JUNCTION     0.61     0.77     7.81     0  02:34        0.77
  WS02006234           JUNCTION     0.52     0.71     7.86     0  02:37        0.71
  WS02006235           JUNCTION     0.56     0.73     7.90     0  02:38        0.73
  WS02006238           JUNCTION     0.58     0.76     7.90     0  02:38        0.76
  WS02006240           JUNCTION     0.47     0.65     7.95     0  02:38        0.65
  WS02006242           JUNCTION     0.52     0.71     7.97     0  02:38        0.71
  WS02006243           JUNCTION     0.40     0.58     8.00     0  02:38        0.58
  WS02006245           JUNCTION     0.38     0.54     8.02     0  02:38        0.54
  WS02006247           JUNCTION     0.40     0.54     8.04     0  02:37        0.54
  WS02006248           JUNCTION     0.35     0.48     8.06     0  02:38        0.48
  WS02006249           JUNCTION     0.38     0.49     8.09     0  02:37        0.49
  WS02006239           JUNCTION     0.53     0.72     7.93     0  02:38        0.72
  WS02006251           JUNCTION     0.37     0.47     8.14     0  02:37        0.47
  WS02006252           JUNCTION     0.32     0.35     8.59     0  02:18        0.35
  WS02006253           JUNCTION     0.39     0.49     8.14     0  02:36        0.49
  WS02006256           JUNCTION     1.04     2.35     9.28     0  00:00        1.21
  WS02004138           JUNCTION     0.15     0.17     7.42     0  00:20        0.17
  WS02004407           JUNCTION     0.22     0.29     6.61     0  02:34        0.29
  WS02006228           JUNCTION     0.74     0.99     7.64     0  02:29        0.99
  WS02006229           JUNCTION     0.72     0.98     7.68     0  02:29        0.98
  WS02006280           JUNCTION     0.06     0.16     8.43     0  02:17        0.16
  WS02006284           JUNCTION     0.35     0.50     8.90     0  02:16        0.50
  WS02006287           JUNCTION     0.08     0.23     9.19     0  02:16        0.23
  WSF200               JUNCTION     0.22     0.31     5.54     0  02:36        0.31
  HS02004901           JUNCTION     0.11     0.25    10.07     0  02:14        0.25
  HS02004881           JUNCTION     0.01     0.03     9.06     0  02:16        0.03
  HS02004876           JUNCTION     0.04     0.11     9.14     0  02:13        0.11
  HS02004870           JUNCTION     0.01     0.05     9.33     0  02:17        0.05
  HS02004862           JUNCTION     0.01     0.05     9.44     0  02:17        0.05
  HS02004856           JUNCTION     0.07     0.11     9.53     0  02:17        0.11
  HS02004852           JUNCTION     0.01     0.03     9.54     0  02:18        0.03
  HS02004848           JUNCTION     0.01     0.03     9.63     0  02:16        0.03
  HS02004842           JUNCTION     0.33     0.36     9.63     0  02:16        0.36
  HS02004837           JUNCTION     0.03     0.05     9.63     0  02:16        0.05
  HS02004830           JUNCTION     0.04     0.07     9.53     0  02:17        0.07
  HS02004824           JUNCTION     0.02     0.04     9.45     0  02:20        0.04
  HS02004817           JUNCTION     0.43     0.54     9.39     0  02:17        0.54
  HS02004807           JUNCTION     0.11     0.22     9.39     0  02:17        0.22
  HS02004802           JUNCTION     0.15     0.25     9.38     0  02:17        0.25
  HS02004799           JUNCTION     0.10     0.28     9.49     0  02:15        0.28
  HS02004792           JUNCTION     0.02     0.11     9.63     0  02:14        0.11
  HS02004788           JUNCTION     0.02     0.08     9.98     0  02:15        0.08
  HS02004785           JUNCTION     0.04     0.15    10.05     0  02:14        0.15
  HS02004777           JUNCTION     0.13     0.27    10.07     0  02:14        0.27
  HS02004770           JUNCTION     0.10     0.24    10.07     0  02:14        0.24
  HS02004480           JUNCTION     0.07     0.22     9.46     0  02:15        0.22
  HS02004479           JUNCTION     0.10     0.26     9.46     0  02:15        0.26
  HS02004478           JUNCTION     0.05     0.14     9.37     0  02:16        0.14
  YS02001745           JUNCTION     0.28     0.50     8.02     0  05:36        0.50
  YS02001748           JUNCTION     0.66     0.93     8.00     0  05:36        0.92
  YS02001751           JUNCTION     0.84     1.28     8.16     0  04:16        1.11
  YS02001754           JUNCTION     1.09     1.44     8.05     0  04:16        1.38
  YS02001762           JUNCTION     1.29     1.61     8.01     0  03:41        1.59
  YS02001765           JUNCTION     1.24     1.64     8.09     0  03:41        1.54
  YS02001767           JUNCTION     1.21     1.68     8.17     0  03:41        1.51
  YS02001770           JUNCTION     1.20     1.78     8.27     0  03:41        1.50
  YS02001774           JUNCTION     1.27     1.89     8.32     0  03:41        1.58
  YS02001779           JUNCTION     1.02     1.66     8.35     0  03:41        1.32
  YS02001882           JUNCTION     0.31     0.51     7.22     0  02:49        0.51
  YS02001884           JUNCTION     0.40     0.61     7.22     0  02:49        0.61
  YS02001759           JUNCTION     1.32     1.63     8.00     0  05:37        1.62
  YS02001887           JUNCTION     0.48     0.68     7.22     0  02:48        0.68
  YS02001890           JUNCTION     0.51     0.71     7.22     0  02:49        0.71
  YS02001898           JUNCTION     0.28     0.47     7.20     0  02:49        0.47
  YS02001901           JUNCTION     0.40     0.60     7.20     0  02:48        0.60
  YS02001904           JUNCTION     0.38     0.57     7.20     0  02:53        0.57
  YS02001907           JUNCTION     0.71     0.91     7.20     0  02:53        0.91
  YS02001910           JUNCTION     0.49     0.70     7.20     0  02:47        0.70
  YS02001915           JUNCTION     0.29     0.48     7.20     0  02:48        0.48
  YS02001918           JUNCTION     0.09     0.13     7.20     0  02:48        0.13
  YS02001619           JUNCTION     0.80     1.27     8.20     0  05:37        1.10
  YS02001629           JUNCTION     1.15     1.53     8.08     0  05:37        1.51
  YS02001641           JUNCTION     1.26     1.58     8.01     0  05:37        1.56
  YS02001644           JUNCTION     1.26     1.57     8.01     0  05:37        1.56
  YS02001652           JUNCTION     1.11     1.83     8.43     0  03:54        1.39
  YS02001655           JUNCTION     0.87     1.83     8.68     0  03:54        1.14
  YS02001920           JUNCTION     0.18     0.23     7.23     0  02:56        0.23
  YS02001923           JUNCTION     0.07     0.09     7.35     0  03:01        0.09
  YS02001926           JUNCTION     0.15     0.19     7.63     0  03:01        0.19
  YS02001929           JUNCTION     0.07     0.10     7.79     0  03:01        0.10
  YS02001658           JUNCTION     0.60     0.86     8.00     0  05:34        0.85
  YS02001661           JUNCTION     0.38     0.58     7.98     0  05:35        0.58
  YS02001664           JUNCTION     0.07     0.13     8.05     0  02:43        0.13
  YS02001622           JUNCTION     0.82     1.25     8.16     0  05:37        1.13
  YS02001633           JUNCTION     1.24     1.60     8.06     0  05:37        1.58
  YS02001649           JUNCTION     1.30     1.70     8.09     0  03:54        1.59
  YS02001757           JUNCTION     1.42     1.73     7.99     0  05:37        1.72
  YS02001895           JUNCTION     0.27     0.47     7.21     0  02:50        0.47
  YS02001625           JUNCTION     1.11     1.45     8.06     0  05:37        1.44
  YS02163301           JUNCTION     1.18     1.55     8.07     0  05:37        1.53
  YS02163601           JUNCTION     1.30     1.64     8.04     0  05:37        1.62
  YS02164001           JUNCTION     1.24     1.57     8.03     0  05:37        1.55
  YS02001647           JUNCTION     1.09     1.48     8.09     0  03:54        1.38
  YSB1154              JUNCTION     0.24     0.40     9.46     0  02:15        0.40
  YSB6556              JUNCTION     0.13     0.29     9.46     0  02:15        0.29
  YSB1174              JUNCTION     0.19     0.35     9.46     0  02:15        0.35
  YSB1171              JUNCTION     0.39     0.56     9.46     0  02:15        0.56
  YS02006553           JUNCTION     0.71     0.92     7.20     0  02:54        0.92
  YS02006561           JUNCTION     0.15     0.25     6.91     0  02:53        0.25
  YS02006556           JUNCTION     0.68     0.89     7.20     0  02:53        0.88
  YS02006558           JUNCTION     0.73     0.93     7.20     0  02:53        0.93
  YS02001783           JUNCTION     0.26     0.45     6.59     0  02:51        0.45
  YS02001784           JUNCTION     0.30     0.48     6.54     0  02:51        0.48
  YS02001786           JUNCTION     0.25     0.40     6.43     0  02:51        0.40
  YS02001788           JUNCTION     0.18     0.31     6.28     0  02:52        0.31
  YS02001790           JUNCTION     0.22     0.37     6.02     0  02:52        0.37
  YS02001791           JUNCTION     0.15     0.24     5.71     0  03:00        0.24
  YS02001793           JUNCTION     0.09     0.16     4.99     0  02:52        0.16
  WS02004139           JUNCTION     0.60     0.66     5.57     0  02:44        0.66
  WSC                  OUTFALL      0.30     0.37     1.04     0  02:43        0.37
  3                    OUTFALL      0.09     0.23     6.23     0  00:00        0.20
  4                    OUTFALL      0.00     0.00     7.00     0  00:00        0.00
  5                    OUTFALL      0.00     0.00     5.00     0  00:00        0.00
  JK-storage           STORAGE      0.15     3.00     3.80     0  00:00        2.39
  CC-storage           STORAGE      0.66     0.94     7.94     0  05:46        0.94
  XR-storage           STORAGE      6.92     7.72     5.72     0  03:47        7.72
  
  
  *******************
  Node Inflow Summary
  *******************
  
  -------------------------------------------------------------------------------------------------
                                  Maximum  Maximum                  Lateral       Total        Flow
                                  Lateral    Total  Time of Max      Inflow      Inflow     Balance
                                   Inflow   Inflow   Occurrence      Volume      Volume       Error
  Node                 Type           LPS      LPS  days hr:min    10^6 ltr    10^6 ltr     Percent
  -------------------------------------------------------------------------------------------------
  WS02001211           JUNCTION      7.35   292.98     0  03:00       0.207        6.76       0.552
  WS02001212           JUNCTION      0.00   293.34     0  03:00           0        6.72       0.284
  WS02001213           JUNCTION      0.00   293.67     0  03:00           0         6.7       0.365
  WS02003069           JUNCTION      0.32   828.37     0  02:41     0.00902          14       0.221
  WS02003072           JUNCTION      0.00   828.35     0  02:41           0          14       0.269
  WS02003073           JUNCTION      1.82   830.18     0  02:42      0.0514          14       0.305
  WS02003060           JUNCTION     16.53   828.07     0  02:40       0.466          14       0.211
  WS02003066           JUNCTION      0.00   522.89     0  02:38           0        6.93       0.065
  WS02003059           JUNCTION      0.00   294.29     0  03:01           0        6.68       0.587
  WS02003067           JUNCTION      0.00   522.88     0  02:37           0        6.94       0.137
  WS02004401           JUNCTION      0.00   526.84     0  02:31           0        7.18       0.305
  WS02004402           JUNCTION      0.00   525.97     0  02:31           0        7.16       0.288
  WS02004403           JUNCTION      0.00   525.49     0  02:32           0        7.13       0.261
  WS02004404           JUNCTION      0.16   525.29     0  02:32     0.00457        7.12       0.195
  WS02004406           JUNCTION      0.00   525.29     0  02:32           0        7.09       0.477
  WS02004409           JUNCTION      0.00   524.59     0  02:34           0        7.05       0.238
  WS02004410           JUNCTION      0.00   523.59     0  02:35           0        7.03       0.268
  WS02004411           JUNCTION      0.00   523.08     0  02:37           0        7.01       0.275
  WS02004412           JUNCTION      0.00   523.00     0  02:37           0        6.99       0.296
  WS02004413           JUNCTION      0.00   522.95     0  02:37           0        6.97       0.438
  WS02004405           JUNCTION      0.04   525.22     0  02:32     0.00107        7.11       0.295
  WS02006109           JUNCTION      1.23   520.85     0  02:29      0.0347        7.27       0.317
  WS02006110           JUNCTION      0.00   520.85     0  02:29           0        7.25       0.277
  WS02006111           JUNCTION      0.00   540.48     0  02:29           0        7.22       0.063
  WS02006112           JUNCTION     11.18   532.46     0  02:31      0.0301        7.25       0.390
  WS02006113           JUNCTION      0.00   521.05     0  02:29           0        7.23       0.138
  WS02006115           JUNCTION      0.00   533.67     0  02:31           0        7.22       0.291
  WS02006116           JUNCTION      0.00   528.86     0  02:31           0         7.2       0.280
  WS02006230           JUNCTION     10.28   349.06     0  02:50        0.29        6.28       0.234
  WS02006231           JUNCTION      0.00   337.94     0  02:50           0           6       0.163
  WS02006232           JUNCTION      0.00   337.83     0  02:50           0        6.01       0.274
  WS02006234           JUNCTION      0.00   337.28     0  02:50           0        6.02       0.139
  WS02006235           JUNCTION      0.00   336.92     0  02:50           0        6.05       0.179
  WS02006238           JUNCTION      0.00   235.73     0  02:45           0           4       0.199
  WS02006240           JUNCTION      0.00   234.32     0  02:44           0           4       0.305
  WS02006242           JUNCTION      0.00   233.59     0  02:44           0        4.01       0.366
  WS02006243           JUNCTION      0.00   236.11     0  02:23           0        4.01       0.158
  WS02006245           JUNCTION      0.00   239.69     0  02:23           0        4.02       0.217
  WS02006247           JUNCTION      0.00   241.78     0  02:24           0        4.02       0.172
  WS02006248           JUNCTION      0.00   243.29     0  02:22           0        4.03       0.106
  WS02006249           JUNCTION      0.00   245.00     0  02:22           0        4.04       0.252
  WS02006239           JUNCTION      0.00   235.08     0  02:45           0           4       0.297
  WS02006251           JUNCTION      0.08   247.35     0  02:19     0.00217        4.05       0.217
  WS02006252           JUNCTION      0.00   200.00     0  02:18           0        3.88       0.011
  WS02006253           JUNCTION      1.70    49.97     0  02:16     0.00389       0.172       2.168
  WS02006256           JUNCTION      0.00   600.00     0  00:00           0         5.3       0.042
  WS02004138           JUNCTION      0.00   285.00     0  00:20           0        6.58       0.068
  WS02004407           JUNCTION      0.00   524.87     0  02:32           0        7.05       0.108
  WS02006228           JUNCTION      0.00   519.62     0  02:29           0        7.26       0.220
  WS02006229           JUNCTION      0.00   519.58     0  02:29           0        7.27       0.171
  WS02006280           JUNCTION      0.00   252.66     0  02:17           0        1.01       0.007
  WS02006284           JUNCTION      0.10   252.65     0  02:16      0.0027        1.01       0.107
  WS02006287           JUNCTION      0.00   252.54     0  02:16           0        1.01       0.072
  WSF200               JUNCTION      0.00   522.90     0  02:38           0        6.93       0.061
  HS02004901           JUNCTION     13.85    13.85     0  02:09      0.0362      0.0363       5.082
  HS02004881           JUNCTION      5.60    48.66     0  02:16      0.0158       0.167       0.211
  HS02004876           JUNCTION      8.92    43.39     0  02:16      0.0303       0.152       0.350
  HS02004870           JUNCTION      9.88    34.64     0  02:16      0.0299       0.122       0.088
  HS02004862           JUNCTION      8.10    25.41     0  02:17      0.0355      0.0919       0.185
  HS02004856           JUNCTION      7.33    17.37     0  02:16      0.0225      0.0578       2.558
  HS02004852           JUNCTION      0.00    10.50     0  02:16           0      0.0353       0.146
  HS02004848           JUNCTION     16.25    16.25     0  02:19      0.0714      0.0714       0.061
  HS02004842           JUNCTION      0.00     6.34     0  02:29           0      0.0491      36.016
  HS02004837           JUNCTION     22.20    27.47     0  02:15       0.231       0.267       0.305
  HS02004830           JUNCTION      0.15    27.60     0  02:16     0.00423       0.258       0.481
  HS02004824           JUNCTION     18.28    45.65     0  02:19      0.0935        0.35       0.154
  HS02004817           JUNCTION      0.60    46.25     0  02:20      0.0169       0.366       4.768
  HS02004807           JUNCTION     18.60    63.20     0  02:18       0.055       0.405       1.056
  HS02004802           JUNCTION      0.00    63.61     0  02:19           0         0.4       1.026
  HS02004799           JUNCTION     14.32   161.55     0  02:14      0.0445       0.531       0.430
  HS02004792           JUNCTION     63.92   147.51     0  02:14       0.193       0.487       0.084
  HS02004788           JUNCTION     21.09    85.81     0  02:14       0.109       0.295       0.131
  HS02004785           JUNCTION      0.15    65.08     0  02:14     0.00423       0.188       0.258
  HS02004777           JUNCTION      0.03    65.42     0  02:13    0.000846       0.188       2.825
  HS02004770           JUNCTION     54.16    66.68     0  02:11       0.155       0.189       1.662
  HS02004480           JUNCTION      0.00   190.53     0  02:15           0       0.621       0.120
  HS02004479           JUNCTION      0.00    29.57     0  02:16           0       0.103       0.716
  HS02004478           JUNCTION      0.00   252.52     0  02:16           0        1.01       0.061
  YS02001745           JUNCTION     93.38   139.15     0  05:36       0.983        1.13       0.337
  YS02001748           JUNCTION      0.04   228.04     0  04:06     0.00127        1.15       1.378
  YS02001751           JUNCTION      0.01   219.82     0  04:07     0.00031       0.986       1.957
  YS02001754           JUNCTION      0.26   135.45     0  02:56     0.00733       0.954       2.575
  YS02001762           JUNCTION      0.00   132.77     0  03:00           0        1.07       2.003
  YS02001765           JUNCTION      0.00   134.69     0  02:33           0        1.07       2.310
  YS02001767           JUNCTION      0.54   130.69     0  03:00      0.0151        1.09       3.360
  YS02001770           JUNCTION    119.65   143.34     0  03:00        1.14        1.17       2.682
  YS02001774           JUNCTION      0.00    50.34     0  02:13           0       0.102      32.518
  YS02001779           JUNCTION      0.01    42.07     0  03:39    0.000141      0.0454      46.432
  YS02001882           JUNCTION      0.00     4.84     0  02:06           0     0.00613      40.124
  YS02001884           JUNCTION      0.00    13.78     0  02:05           0      0.0242      26.279
  YS02001759           JUNCTION    116.90   248.39     0  02:48        1.06         2.1       1.093
  YS02001887           JUNCTION    153.59   153.67     0  02:40        1.26        1.27       0.580
  YS02001890           JUNCTION      0.00   153.40     0  02:43           0        1.25       0.648
  YS02001898           JUNCTION      0.00   152.83     0  02:49           0        1.23       0.190
  YS02001901           JUNCTION      0.00   153.20     0  02:48           0        1.23       0.464
  YS02001904           JUNCTION      0.00   152.81     0  02:48           0        1.23       0.431
  YS02001907           JUNCTION      0.00   278.20     0  03:00           0        2.65       0.849
  YS02001910           JUNCTION      0.00   127.58     0  03:03           0        1.43       0.731
  YS02001915           JUNCTION     83.49   126.64     0  03:00       0.838        1.43       0.333
  YS02001918           JUNCTION      0.00    42.82     0  03:03           0       0.597       0.207
  YS02001619           JUNCTION     81.23    85.64     0  04:00       0.828        0.83       1.298
  YS02001629           JUNCTION      0.00   176.81     0  03:59           0       0.777       3.411
  YS02001641           JUNCTION      0.00   174.18     0  02:42           0        1.63       1.321
  YS02001644           JUNCTION     88.75   261.18     0  02:42       0.944        2.54       1.047
  YS02001652           JUNCTION      0.00   153.21     0  03:07           0       0.889       2.646
  YS02001655           JUNCTION      0.15   284.96     0  03:52     0.00434       0.927       2.559
  YS02001920           JUNCTION      2.87    42.66     0  03:01      0.0809       0.599       0.362
  YS02001923           JUNCTION      0.04    39.79     0  03:01     0.00106       0.518       0.064
  YS02001926           JUNCTION      0.05    39.83     0  03:01     0.00147        0.52       0.453
  YS02001929           JUNCTION     39.79    39.79     0  03:01       0.519       0.519       0.063
  YS02001658           JUNCTION      0.00   236.24     0  03:54           0         1.1       1.490
  YS02001661           JUNCTION      0.00   191.79     0  03:50           0        1.09       0.702
  YS02001664           JUNCTION    108.99   108.99     0  02:43       0.926       0.926       0.006
  YS02001622           JUNCTION      0.00   130.54     0  04:01           0       0.844       3.700
  YS02001633           JUNCTION     90.25   181.24     0  02:44       0.972        1.68       1.936
  YS02001649           JUNCTION      0.00   379.97     0  02:49           0        3.33       1.122
  YS02001757           JUNCTION      0.00   683.22     0  02:55           0        6.26       1.491
  YS02001895           JUNCTION      0.00   152.58     0  02:42           0        1.24       0.315
  YS02001625           JUNCTION      0.00   177.02     0  03:59           0       0.837       4.844
  YS02163301           JUNCTION      0.00    99.45     0  02:44           0       0.739       3.331
  YS02163601           JUNCTION      0.11   174.22     0  02:46      0.0031        1.64       1.865
  YS02164001           JUNCTION      0.00   172.30     0  03:02           0        1.63       1.255
  YS02001647           JUNCTION      0.00   265.09     0  02:45           0         2.5       1.135
  YSB1154              JUNCTION     15.87    15.87     0  02:14      0.0539      0.0553       2.682
  YSB6556              JUNCTION      0.00    15.85     0  02:16           0      0.0562       2.267
  YSB1174              JUNCTION     15.74    15.74     0  02:08      0.0392      0.0403       3.290
  YSB1171              JUNCTION      0.00    29.51     0  02:14           0       0.102       6.603
  YS02006553           JUNCTION      0.00   278.76     0  03:00           0        2.64       0.550
  YS02006561           JUNCTION      0.00   423.75     0  02:50           0        3.74       0.012
  YS02006556           JUNCTION      0.00   278.99     0  02:59           0        2.65       0.398
  YS02006558           JUNCTION    130.02   406.31     0  02:51        1.15        3.77       0.129
  YS02001783           JUNCTION      0.00   406.19     0  02:51           0        3.74       0.044
  YS02001784           JUNCTION      1.06   407.06     0  02:51      0.0299        3.76       0.072
  YS02001786           JUNCTION      0.06   407.04     0  02:51     0.00159        3.76       0.070
  YS02001788           JUNCTION      0.07   407.12     0  02:51       0.002        3.76       0.040
  YS02001790           JUNCTION      0.15   407.31     0  02:52     0.00437        3.77       0.050
  YS02001791           JUNCTION      0.00   407.24     0  02:52           0        3.76       0.025
  YS02001793           JUNCTION      0.00   407.25     0  02:52           0        3.76       0.009
  WS02004139           JUNCTION      0.32   285.35     0  00:20     0.00905        6.59       0.577
  WSC                  OUTFALL       0.00   830.20     0  02:43           0        13.9       0.000
  3                    OUTFALL       0.00   597.65     0  00:00           0        3.22       0.000
  4                    OUTFALL       0.00     0.00     0  00:00           0           0       0.000 ltr
  5                    OUTFALL       0.00     0.00     0  00:00           0           0       0.000 ltr
  JK-storage           STORAGE       0.00   407.42     0  02:59           0        3.91     -26.095
  CC-storage           STORAGE       0.00   683.53     0  02:55           0        6.17       0.787
  XR-storage           STORAGE     351.12   351.12     0  02:52        7.29        7.89      -0.001
  
  
  **********************
  Node Surcharge Summary
  **********************
  
  Surcharging occurs when water rises above the top of the highest conduit.
  ---------------------------------------------------------------------
                                               Max. Height   Min. Depth
                                   Hours       Above Crown    Below Rim
  Node                 Type      Surcharged         Meters       Meters
  ---------------------------------------------------------------------
  WS02006109           JUNCTION        0.96          0.135        1.685
  WS02006110           JUNCTION        0.04          0.001        1.849
  WS02006112           JUNCTION        0.40          0.039        1.641
  WS02006232           JUNCTION        0.68          0.073        1.407
  WS02006235           JUNCTION        0.34          0.023        1.267
  WS02006238           JUNCTION        0.43          0.039        1.391
  WS02006256           JUNCTION        0.01          1.050        0.000
  WS02006228           JUNCTION        0.93          0.159        2.041
  YS02001751           JUNCTION        2.50          0.280        0.920
  YS02001754           JUNCTION        4.20          0.394        0.756
  YS02001762           JUNCTION        5.31          0.612        0.538
  YS02001765           JUNCTION        5.26          0.639        0.461
  YS02001767           JUNCTION        5.20          0.683        0.347
  YS02001770           JUNCTION        5.11          0.749        0.171
  YS02001774           JUNCTION        5.30          0.895        0.155
  YS02001779           JUNCTION        4.07          0.662        0.018
  YS02001759           JUNCTION        5.34          0.634        0.576
  YS02001619           JUNCTION        0.96          0.273        0.337
  YS02001629           JUNCTION        1.03          0.147        0.323
  YS02001641           JUNCTION        5.28          0.577        0.523
  YS02001644           JUNCTION        5.28          0.575        0.345
  YS02001652           JUNCTION        4.37          0.800        0.330
  YS02001655           JUNCTION        3.05          0.834        0.366
  YS02001622           JUNCTION        2.02          0.251        0.369
  YS02001633           JUNCTION        5.24          0.583        0.477
  YS02001649           JUNCTION        5.31          0.695        0.355
  YS02001757           JUNCTION        5.43          0.732        0.478
  YS02001625           JUNCTION        4.66          0.451        0.329
  YS02163301           JUNCTION        5.17          0.550        0.480
  YS02163601           JUNCTION        5.32          0.640        0.440
  YS02164001           JUNCTION        5.26          0.568        0.532
  YS02001647           JUNCTION        4.46          0.476        0.424
  
  
  *********************
  Node Flooding Summary
  *********************
  
  Flooding refers to all water that overflows a node, whether it ponds or not.
  --------------------------------------------------------------------------
                                                             Total   Maximum
                                 Maximum   Time of Max       Flood    Ponded
                        Hours       Rate    Occurrence      Volume     Depth
  Node                 Flooded       LPS   days hr:min    10^6 ltr    Meters
  --------------------------------------------------------------------------
  WS02006256              0.01    406.11      0  00:00       0.001     0.000
  XR-storage              2.06    163.28      0  05:30       0.430     0.000
  
  
  **********************
  Storage Volume Summary
  **********************
  
  --------------------------------------------------------------------------------------------------
                         Average     Avg  Evap Exfil       Maximum     Max    Time of Max    Maximum
                          Volume    Pcnt  Pcnt  Pcnt        Volume    Pcnt     Occurrence    Outflow
  Storage Unit           1000 m3    Full  Loss  Loss       1000 m3    Full    days hr:min        LPS
  --------------------------------------------------------------------------------------------------
  JK-storage               0.007       3     0     0         0.151      52       0  00:00     600.00
  CC-storage               1.850      12     0     0         2.630      17       0  05:46     200.00
  XR-storage               0.830      90     0     0         0.926     100       0  03:47     285.00
  
  
  ***********************
  Outfall Loading Summary
  ***********************
  
  -----------------------------------------------------------
                         Flow       Avg       Max       Total
                         Freq      Flow      Flow      Volume
  Outfall Node           Pcnt       LPS       LPS    10^6 ltr
  -----------------------------------------------------------
  WSC                   99.99    575.42    830.20      13.946
  3                     76.30    208.02    597.65       3.216
  4                      0.00      0.00      0.00       0.000
  5                      0.00      0.00      0.00       0.000
  -----------------------------------------------------------
  System                44.07    783.44   1331.86      17.162
  
  
  ********************
  Link Flow Summary
  ********************
  
  -----------------------------------------------------------------------------
                                 Maximum  Time of Max   Maximum    Max/    Max/
                                  |Flow|   Occurrence   |Veloc|    Full    Full
  Link                 Type          LPS  days hr:min     m/sec    Flow   Depth
  -----------------------------------------------------------------------------
  WS02003066WSF200     CONDUIT    522.90     0  02:38      2.70    0.09    0.23
  WS02006287WS02006284 CONDUIT    252.55     0  02:16      1.74    0.12    0.24
  WS02006284WS02006280 CONDUIT    252.66     0  02:17      1.98    0.11    0.22
  WS02006280WS02006229 CONDUIT    252.66     0  02:17      3.18    0.05    0.16
  WS02006229WS02006228 CONDUIT    519.62     0  02:29      1.03    1.72    1.00
  WS02006256WS02006235 CONDUIT    177.52     0  00:01      2.73    1.88    1.00
  WS02006253WS02006251 CONDUIT     50.01     0  02:15      0.53    0.15    0.68
  WS02006252WS02006251 CONDUIT    200.64     0  02:18      1.97    0.74    0.76
  WS02006251WS02006249 CONDUIT    245.00     0  02:22      0.99    0.71    0.69
  WS02006249WS02006248 CONDUIT    243.29     0  02:22      1.08    1.33    0.68
  WS02006248WS02006247 CONDUIT    241.78     0  02:24      1.04    0.53    0.72
  WS02006247WS02006245 CONDUIT    239.69     0  02:23      1.00    1.90    0.76
  WS02006245WS02006243 CONDUIT    236.11     0  02:23      1.06    0.70    0.79
  WS02006243WS02006242 CONDUIT    233.59     0  02:44      0.85    0.50    0.89
  WS02006242WS02006240 CONDUIT    234.32     0  02:44      0.76    0.93    0.96
  WS02006240WS02006239 CONDUIT    235.08     0  02:45      0.83    0.74    0.95
  WS02006239WS02006238 CONDUIT    235.73     0  02:45      0.76    0.75    1.00
  WS02006238WS02006235 CONDUIT    239.37     0  04:10      1.32    0.53    1.00
  WS02006235WS02006234 CONDUIT    337.28     0  02:50      0.95    3.56    0.99
  WS02006234WS02006232 CONDUIT    337.83     0  02:50      1.17    0.68    1.00
  WS02006232WS02006231 CONDUIT    337.94     0  02:50      0.94    0.71    0.96
  WS02006231WS02006230 CONDUIT    338.78     0  02:50      1.29    5.14    0.89
  WS02006230WS02006229 CONDUIT    350.21     0  02:51      0.91    7.79    1.00
  WS02006228WS02006109 CONDUIT    519.62     0  02:29      1.03    2.27    1.00
  WS02006116WS02004401 CONDUIT    526.84     0  02:31      0.76    0.73    0.83
  WS02006115WS02006116 CONDUIT    528.86     0  02:31      0.85    0.68    0.75
  WS02006113WS02006111 CONDUIT    540.48     0  02:29      2.43    0.65    0.45
  WS02006112WS02006115 CONDUIT    533.67     0  02:31      0.74    0.32    0.87
  WS02006111WS02006112 CONDUIT    526.21     0  02:31      1.47    0.25    0.67
  WS02006110WS02006113 CONDUIT    521.05     0  02:29      1.24    0.47    0.78
  WS02006109WS02006110 CONDUIT    520.85     0  02:29      1.04    1.00    1.00
  WS02004411WS02004412 CONDUIT    523.00     0  02:37      0.91    0.74    0.69
  WS02004401WS02004402 CONDUIT    525.97     0  02:31      0.74    0.63    0.85
  WS02004413WS02003067 CONDUIT    522.88     0  02:37      1.09    0.22    0.59
  WS02004412WS02004413 CONDUIT    522.95     0  02:37      0.81    0.35    0.77
  WS02004410WS02004411 CONDUIT    523.08     0  02:37      0.93    0.71    0.68
  WS02004409WS02004410 CONDUIT    523.59     0  02:35      0.95    0.68    0.67
  WS02004407WS02004409 CONDUIT    524.59     0  02:34      1.46    0.19    0.47
  WS02004406WS02004407 CONDUIT    524.87     0  02:32      1.02    0.23    0.62
  WS02004405WS02004406 CONDUIT    525.29     0  02:32      0.68    1.04    0.95
  WS02004404WS02004405 CONDUIT    525.18     0  02:32      0.68    5.15    0.95
  WS02004403WS02004404 CONDUIT    525.13     0  02:32      0.70    0.38    0.92
  WS02004402WS02004403 CONDUIT    525.49     0  02:32      0.72    0.75    0.87
  WS02004139WS02001211 CONDUIT    285.64     0  03:00      0.69    0.36    0.53
  WS02004138WS02004139 CONDUIT    285.03     0  00:20      2.94    0.06    0.39
  WS02003067WS02003066 CONDUIT    522.89     0  02:38      1.19    0.17    0.41
  WS02001213WS02003059 CONDUIT    294.29     0  03:01      0.64    0.49    0.72
  WS02001212WS02001213 CONDUIT    293.67     0  03:00      1.19    0.45    0.41
  WS02001211WS02001212 CONDUIT    293.34     0  03:00      0.67    0.22    0.58
  WS02003072WS02003073 CONDUIT    828.36     0  02:42      1.65    1.79    0.46
  WS02003069WS02003072 CONDUIT    828.35     0  02:41      1.56    0.40    0.48
  WS02003060WS02003069 CONDUIT    828.05     0  02:41      1.81    0.32    0.42
  WS02003059WS02003060 CONDUIT    295.23     0  03:01      0.82    0.19    0.62
  HS02004901HS02004770 CONDUIT     12.85     0  02:13      0.05    0.05    0.35
  HS02004876HS02004881 CONDUIT     43.52     0  02:16      0.66    0.46    0.09
  HS02004870HS02004876 CONDUIT     34.62     0  02:17      0.46    0.02    0.11
  HS02004842HS02004848 CONDUIT      6.34     0  02:29      0.03    0.00    0.28
  HS02004837HS02004842 CONDUIT      6.57     0  02:29      0.41    0.00    0.30
  HS02004830HS02004837 CONDUIT     27.45     0  02:16      0.47    0.03    0.08
  HS02004824HS02004830 CONDUIT     27.59     0  02:17      0.51    0.04    0.08
  HS02004817HS02004824 CONDUIT     45.65     0  02:20      0.17    0.02    0.42
  HS02004770HS02004777 CONDUIT     65.39     0  02:13      0.26    0.12    0.36
  HS02004799HS02004480 CONDUIT    161.26     0  02:14      0.66    0.20    0.35
  HS02004792HS02004799 CONDUIT    147.41     0  02:14      0.76    0.09    0.28
  HS02004788HS02004792 CONDUIT     85.73     0  02:15      0.90    0.06    0.14
  HS02004785HS02004788 CONDUIT     64.99     0  02:15      0.57    0.49    0.16
  HS02004777HS02004785 CONDUIT     64.93     0  02:14      0.31    0.08    0.29
  HS02004480HS02004478 CONDUIT    190.45     0  02:15      1.05    0.80    0.26
  HS02004479HS02004480 CONDUIT     29.84     0  02:17      0.15    0.03    0.34
  HS02004862HS02004870 CONDUIT     25.36     0  02:17      0.51    0.03    0.07
  HS02004848HS02004852 CONDUIT     10.50     0  02:16      0.34    0.01    0.04
  HS02004856HS02004862 CONDUIT     17.33     0  02:17      0.38    0.02    0.07
  HS02004852HS02004856 CONDUIT     10.46     0  02:18      0.15    0.01    0.10
  HS02004802HS02004478 CONDUIT     64.13     0  02:20      0.33    0.06    0.28
  HS02004478WS02006287 CONDUIT    252.54     0  02:16      1.43    0.07    0.20
  HS02004817HS02004807 CONDUIT     46.98     0  02:21      0.13    0.03    0.54
  HS02004807HS02004802 CONDUIT     63.61     0  02:19      0.28    0.12    0.33
  YS02001759YS02001757 CONDUIT    248.42     0  02:48      0.32    0.18    1.00
  YS02001762YS02001759 CONDUIT    133.42     0  03:00      0.18    0.15    1.00
  YS02001765YS02001762 CONDUIT    132.77     0  03:00      0.23    0.12    1.00
  YS02001770YS02001767 CONDUIT    130.15     0  03:00      0.33    0.52    1.00
  YS02001774YS02001770 CONDUIT     50.34     0  02:13      0.14    0.03    1.00
  YS02001779YS02001774 CONDUIT     42.06     0  03:39      0.09    0.02    1.00
  YS02001649YS02001757 CONDUIT    380.39     0  02:49      0.48    0.23    1.00
  YS02001767YS02001765 CONDUIT    134.69     0  02:33      0.26    0.17    1.00
  YS02006561YS02001783 CONDUIT    406.19     0  02:51      1.91    0.21    0.44
  YS02001783YS02001784 CONDUIT    406.00     0  02:51      1.34    0.56    0.58
  YS02001784YS02001785 CONDUIT    406.99     0  02:51      1.44    0.95    0.55
  YS02001788YS02001790 CONDUIT    407.16     0  02:52      2.00    0.30    0.43
  YS02001790YS02001791 CONDUIT    407.24     0  02:52      2.32    0.44    0.38
  YS02001791YS02001793 CONDUIT    407.25     0  02:52      4.74    0.17    0.24
  YS02001910YS02001907 CONDUIT    128.91     0  03:03      0.49    0.07    0.80
  YS02001786YS02001788 CONDUIT    407.04     0  02:51      1.89    0.78    0.44
  YS02001915YS02001910 CONDUIT    127.58     0  03:03      0.44    0.06    0.59
  YS02001918YS02001915 CONDUIT     44.36     0  03:04      0.44    0.02    0.31
  YS02001923YS02001920 CONDUIT     39.79     0  03:01      0.50    0.02    0.16
  YS02001926YS02001923 CONDUIT     39.76     0  03:01      0.54    0.06    0.15
  YS02001929YS02001926 CONDUIT     39.78     0  03:01      0.58    0.02    0.14
  YS02001920YS02001918 CONDUIT     42.82     0  03:03      0.50    0.04    0.18
  YS02001629YS02163301 CONDUIT     99.45     0  02:44      0.13    0.12    1.00
  YS02001619YS02001622 CONDUIT    130.54     0  04:01      0.70    0.19    1.00
  YS02001622YS02001625 CONDUIT    177.02     0  03:59      0.28    0.09    1.00
  YS02001625YS02001629 CONDUIT    176.81     0  03:59      0.27    0.08    1.00
  YS02163301YS02001633 CONDUIT     93.56     0  02:44      0.12    0.09    1.00
  YS02163601YS02164001 CONDUIT    172.30     0  03:02      0.22    0.15    1.00
  YS02164001YS02001641 CONDUIT    174.18     0  02:42      0.22    0.24    1.00
  YS02001641YS02001644 CONDUIT    175.24     0  02:42      0.22    0.57    1.00
  YS02001647YS02001649 CONDUIT    284.24     0  02:51      0.36    0.15    1.00
  YS02006553YS02006556 CONDUIT    278.99     0  02:59      0.38    0.24    0.88
  YS02006556YS02006558 CONDUIT    279.86     0  02:59      0.38    0.22    0.91
  YSB6556YSB1171       CONDUIT     16.15     0  02:17      0.07    0.02    0.61
  YS02001907YS02006553 CONDUIT    278.76     0  03:00      0.31    0.33    0.99
  YS02006558YS02006561 CONDUIT    423.75     0  02:50      2.57    0.94    0.57
  YS02001633YS02163601 CONDUIT    174.11     0  02:46      0.22    0.18    1.00
  YS02001644YS02001647 CONDUIT    265.09     0  02:45      0.34    0.16    1.00
  YS02001745YS02001748 CONDUIT    172.29     0  05:37      1.48    0.07    0.62
  YS02001748YS02001751 CONDUIT    219.80     0  04:07      1.15    0.11    0.96
  YS02001751YS02001754 CONDUIT    135.19     0  02:56      1.01    0.07    1.00
  YS02001754YS02001757 CONDUIT    129.33     0  03:50      0.33    0.05    1.00
  YS02001882YS02001884 CONDUIT      4.84     0  02:06      0.06    0.01    0.53
  YS02001884YS02001887 CONDUIT     13.78     0  02:05      0.06    0.02    0.62
  YS02001890YS02001895 CONDUIT    152.58     0  02:42      0.32    0.07    0.59
  YS02001895YS02001898 CONDUIT    152.83     0  02:49      0.50    0.27    0.45
  YS02001898YS02001901 CONDUIT    153.20     0  02:48      0.36    0.10    0.53
  YS02001901YS02001904 CONDUIT    152.81     0  02:48      0.32    0.24    0.58
  YS02001904YS02001907 CONDUIT    153.30     0  02:48      0.25    0.05    0.74
  YS02001887YS02001890 CONDUIT    153.40     0  02:43      0.28    0.26    0.67
  YS02001652YS02001649 CONDUIT    135.29     0  03:07      0.35    0.07    1.00
  YS02001655YS02001652 CONDUIT    153.21     0  03:07      1.08    0.07    1.00
  YS02001658YS02001655 CONDUIT    265.97     0  03:52      1.33    0.11    0.93
  YS02001661YS02001658 CONDUIT    196.78     0  04:10      1.54    0.08    0.65
  YS02001664YS02001661 CONDUIT    108.99     0  02:43      1.24    0.03    0.32
  YSB1154YSB6556       CONDUIT     15.85     0  02:16      0.19    0.03    0.50
  YSB1174YSB1171       CONDUIT     14.62     0  02:10      0.06    0.02    0.61
  YSB1171HS02004479    CONDUIT     29.57     0  02:16      0.54    0.02    0.48
  HS02004881HS02006253 CONDUIT     48.65     0  02:16      1.81    0.01    0.12
  YS02001793JiankangQianchi CONDUIT    407.42     0  02:59     14.30    0.03    0.56
  YS02001757CaochengTiaoxuchi CONDUIT    683.53     0  02:55      1.45    0.30    0.97
  WSF200WS02003060     CONDUIT    523.00     0  02:38      1.67    0.12    0.33
  1                    CONDUIT    830.20     0  02:43      3.16    0.29    0.37
  2                    CONDUIT      0.00     0  00:00      0.00    0.00    0.00
  3                    CONDUIT    597.65     0  00:00     10.05    0.95    0.86
  4                    CONDUIT      0.00     0  00:00      0.00    0.00    0.00
  CC-Pump-1            PUMP         0.00     0  00:00              0.00
  CC-Pump-2            PUMP       200.00     0  02:18              1.00
  JK-Pump-1            PUMP       300.00     0  00:00              1.00
  JK-Pump-2            PUMP       300.00     0  00:00              1.00
  XR-Pump-1            PUMP        95.00     0  00:20              1.00
  XR-Pump-2            PUMP         0.00     0  00:00              0.00
  XR-Pump-3            PUMP        95.00     0  00:00              1.00
  XR-Pump-4            PUMP        95.00     0  00:00              1.00
  
  
  ***************************
  Flow Classification Summary
  ***************************
  
  -------------------------------------------------------------------------------------
                      Adjusted    ---------- Fraction of Time in Flow Class ---------- 
                       /Actual         Up    Down  Sub   Sup   Up    Down  Norm  Inlet 
  Conduit               Length    Dry  Dry   Dry   Crit  Crit  Crit  Crit  Ltd   Ctrl  
  -------------------------------------------------------------------------------------
  WS02003066WSF200        1.00   0.07  0.00  0.00  0.00  0.93  0.00  0.00  0.64  0.00
  WS02006287WS02006284    1.00   0.03  0.01  0.00  0.68  0.27  0.00  0.00  0.77  0.00
  WS02006284WS02006280    1.00   0.04  0.00  0.00  0.00  0.00  0.00  0.96  0.00  0.00
  WS02006280WS02006229    1.00   0.04  0.00  0.00  0.00  0.00  0.00  0.96  0.00  0.00
  WS02006229WS02006228    1.00   0.00  0.00  0.00  0.98  0.00  0.00  0.02  0.00  0.00
  WS02006256WS02006235    1.00   0.00  0.00  0.00  1.00  0.00  0.00  0.00  0.00  0.00
  WS02006253WS02006251    1.00   0.02  0.01  0.00  0.96  0.00  0.00  0.00  0.00  0.00
  WS02006252WS02006251    1.00   0.07  0.00  0.00  0.00  0.00  0.93  0.00  0.00  0.00
  WS02006251WS02006249    1.00   0.00  0.00  0.00  1.00  0.00  0.00  0.00  0.25  0.00
  WS02006249WS02006248    1.00   0.00  0.02  0.00  0.92  0.00  0.06  0.00  0.00  0.00
  WS02006248WS02006247    1.00   0.02  0.00  0.00  0.97  0.00  0.00  0.01  0.16  0.00
  WS02006247WS02006245    1.00   0.02  0.00  0.00  0.96  0.00  0.00  0.02  0.00  0.00
  WS02006245WS02006243    1.00   0.02  0.00  0.00  0.94  0.00  0.00  0.04  0.01  0.00
  WS02006243WS02006242    1.00   0.01  0.00  0.00  0.99  0.00  0.00  0.00  0.27  0.00
  WS02006242WS02006240    1.00   0.01  0.00  0.00  0.99  0.00  0.00  0.00  0.00  0.00
  WS02006240WS02006239    1.00   0.00  0.00  0.00  0.95  0.00  0.00  0.04  0.02  0.00
  WS02006239WS02006238    1.00   0.00  0.00  0.00  1.00  0.00  0.00  0.00  0.00  0.00
  WS02006238WS02006235    1.00   0.00  0.00  0.00  1.00  0.00  0.00  0.00  0.00  0.00
  WS02006235WS02006234    1.00   0.00  0.00  0.00  0.95  0.00  0.05  0.00  0.00  0.00
  WS02006234WS02006232    1.00   0.00  0.00  0.00  1.00  0.00  0.00  0.00  0.08  0.00
  WS02006232WS02006231    1.00   0.00  0.00  0.00  0.99  0.00  0.01  0.00  0.00  0.00
  WS02006231WS02006230    1.00   0.00  0.00  0.00  0.32  0.00  0.68  0.00  0.00  0.00
  WS02006230WS02006229    1.00   0.00  0.00  0.00  0.98  0.00  0.00  0.02  0.01  0.00
  WS02006228WS02006109    1.00   0.00  0.00  0.00  1.00  0.00  0.00  0.00  0.00  0.00
  WS02006116WS02004401    1.00   0.02  0.00  0.00  0.98  0.00  0.00  0.00  0.00  0.00
  WS02006115WS02006116    1.00   0.02  0.00  0.00  0.97  0.00  0.00  0.01  0.01  0.00
  WS02006113WS02006111    1.00   0.02  0.00  0.00  0.00  0.98  0.00  0.00  0.10  0.00
  WS02006112WS02006115    1.00   0.02  0.00  0.00  0.98  0.00  0.00  0.00  0.00  0.00
  WS02006111WS02006112    1.00   0.02  0.00  0.00  0.98  0.00  0.00  0.00  0.98  0.00
  WS02006110WS02006113    1.00   0.02  0.00  0.00  0.98  0.00  0.00  0.00  0.00  0.00
  WS02006109WS02006110    1.00   0.00  0.01  0.00  0.98  0.00  0.00  0.00  0.00  0.00
  WS02004411WS02004412    1.00   0.05  0.00  0.00  0.95  0.00  0.00  0.00  0.00  0.00
  WS02004401WS02004402    1.00   0.02  0.00  0.00  0.98  0.00  0.00  0.00  0.00  0.00
  WS02004413WS02003067    1.00   0.05  0.01  0.00  0.00  0.00  0.94  0.00  0.00  0.00
  WS02004412WS02004413    1.00   0.05  0.00  0.00  0.95  0.00  0.00  0.00  0.03  0.00
  WS02004410WS02004411    1.00   0.05  0.00  0.00  0.95  0.00  0.00  0.00  0.01  0.00
  WS02004409WS02004410    1.00   0.05  0.00  0.00  0.95  0.00  0.00  0.00  0.00  0.00
  WS02004407WS02004409    1.00   0.05  0.00  0.00  0.95  0.00  0.00  0.00  0.80  0.00
  WS02004406WS02004407    1.00   0.00  0.05  0.00  0.95  0.00  0.00  0.00  0.00  0.00
  WS02004405WS02004406    1.00   0.00  0.00  0.00  1.00  0.00  0.00  0.00  0.02  0.00
  WS02004404WS02004405    1.00   0.00  0.00  0.00  1.00  0.00  0.00  0.00  0.00  0.00
  WS02004403WS02004404    1.00   0.00  0.02  0.00  0.98  0.00  0.00  0.00  0.02  0.00
  WS02004402WS02004403    1.00   0.02  0.00  0.00  0.98  0.00  0.00  0.00  0.00  0.00
  WS02004139WS02001211    1.00   0.00  0.00  0.00  0.99  0.00  0.01  0.00  0.00  0.00
  WS02004138WS02004139    1.00   0.00  0.00  0.00  0.99  0.01  0.00  0.00  1.00  0.00
  WS02003067WS02003066    1.00   0.06  0.00  0.00  0.93  0.00  0.00  0.00  0.00  0.00
  WS02001213WS02003059    1.00   0.00  0.01  0.00  0.99  0.00  0.00  0.00  0.00  0.00
  WS02001212WS02001213    1.00   0.01  0.00  0.00  0.90  0.00  0.09  0.00  0.00  0.00
  WS02001211WS02001212    1.00   0.00  0.01  0.00  0.99  0.00  0.00  0.00  0.00  0.00
  WS02003072WS02003073    1.00   0.00  0.00  0.00  0.00  0.00  0.00  1.00  0.00  0.00
  WS02003069WS02003072    1.00   0.00  0.00  0.00  0.99  0.01  0.00  0.00  0.28  0.00
  WS02003060WS02003069    1.00   0.00  0.00  0.00  0.99  0.01  0.00  0.00  0.11  0.00
  WS02003059WS02003060    1.00   0.00  0.00  0.00  0.99  0.01  0.00  0.00  0.01  0.00
  HS02004901HS02004770    1.00   0.04  0.00  0.00  0.96  0.00  0.00  0.00  0.02  0.00
  HS02004876HS02004881    1.00   0.02  0.00  0.00  0.98  0.00  0.00  0.00  0.00  0.00
  HS02004870HS02004876    1.00   0.01  0.00  0.00  0.99  0.00  0.00  0.00  0.95  0.00
  HS02004842HS02004848    1.00   0.00  0.04  0.00  0.96  0.00  0.00  0.00  0.68  0.00
  HS02004837HS02004842    1.00   0.00  0.00  0.00  0.99  0.01  0.00  0.00  0.11  0.00
  HS02004830HS02004837    1.00   0.00  0.00  0.00  1.00  0.00  0.00  0.00  0.99  0.00
  HS02004824HS02004830    1.00   0.00  0.00  0.00  1.00  0.00  0.00  0.00  0.00  0.00
  HS02004817HS02004824    1.00   0.00  0.00  0.00  1.00  0.00  0.00  0.00  1.00  0.00
  HS02004770HS02004777    1.00   0.00  0.04  0.00  0.96  0.00  0.00  0.00  0.07  0.00
  HS02004799HS02004480    1.00   0.00  0.02  0.00  0.95  0.00  0.03  0.00  0.00  0.00
  HS02004792HS02004799    1.00   0.00  0.00  0.00  0.99  0.01  0.00  0.00  0.98  0.00
  HS02004788HS02004792    1.00   0.00  0.00  0.00  0.99  0.01  0.00  0.00  0.98  0.00
  HS02004785HS02004788    1.00   0.00  0.00  0.00  1.00  0.00  0.00  0.00  0.00  0.00
  HS02004777HS02004785    1.00   0.00  0.00  0.00  1.00  0.00  0.00  0.00  0.20  0.00
  HS02004480HS02004478    1.00   0.04  0.00  0.00  0.74  0.00  0.00  0.22  0.00  0.00
  HS02004479HS02004480    1.00   0.02  0.00  0.00  0.98  0.00  0.00  0.00  0.16  0.00
  HS02004862HS02004870    1.00   0.00  0.00  0.00  1.00  0.00  0.00  0.00  0.06  0.00
  HS02004848HS02004852    1.00   0.04  0.00  0.00  0.96  0.00  0.00  0.00  0.71  0.00
  HS02004856HS02004862    1.00   0.00  0.06  0.00  0.94  0.00  0.00  0.00  0.74  0.00
  HS02004852HS02004856    1.00   0.04  0.01  0.00  0.96  0.00  0.00  0.00  0.83  0.00
  HS02004802HS02004478    1.00   0.04  0.00  0.00  0.96  0.00  0.00  0.00  0.01  0.00
  HS02004478WS02006287    1.00   0.05  0.00  0.00  0.86  0.09  0.00  0.00  0.75  0.00
  HS02004817HS02004807    1.00   0.00  0.04  0.00  0.96  0.00  0.00  0.00  0.00  0.00
  HS02004807HS02004802    1.00   0.04  0.00  0.00  0.96  0.00  0.00  0.00  0.01  0.00
  YS02001759YS02001757    1.00   0.00  0.00  0.00  1.00  0.00  0.00  0.00  0.17  0.00
  YS02001762YS02001759    1.00   0.00  0.00  0.00  1.00  0.00  0.00  0.00  0.04  0.00
  YS02001765YS02001762    1.00   0.00  0.00  0.00  1.00  0.00  0.00  0.00  0.22  0.00
  YS02001770YS02001767    1.00   0.00  0.00  0.00  1.00  0.00  0.00  0.00  0.00  0.00
  YS02001774YS02001770    1.00   0.00  0.04  0.00  0.95  0.00  0.00  0.00  0.06  0.00
  YS02001779YS02001774    1.00   0.00  0.00  0.00  1.00  0.00  0.00  0.00  0.26  0.00
  YS02001649YS02001757    1.00   0.00  0.00  0.00  1.00  0.00  0.00  0.00  0.19  0.00
  YS02001767YS02001765    1.00   0.00  0.00  0.00  1.00  0.00  0.00  0.00  0.01  0.00
  YS02006561YS02001783    1.00   0.06  0.00  0.00  0.00  0.94  0.00  0.00  0.64  0.00
  YS02001783YS02001784    1.00   0.00  0.06  0.00  0.94  0.00  0.00  0.00  0.00  0.00
  YS02001784YS02001785    1.00   0.00  0.00  0.00  1.00  0.00  0.00  0.00  0.25  0.00
  YS02001788YS02001790    1.00   0.00  0.00  0.00  0.06  0.94  0.00  0.00  0.72  0.00
  YS02001790YS02001791    1.00   0.00  0.00  0.00  0.02  0.98  0.00  0.00  0.60  0.00
  YS02001791YS02001793    1.00   0.00  0.00  0.00  0.00  1.00  0.00  0.00  0.00  0.00
  YS02001910YS02001907    1.00   0.00  0.00  0.00  0.98  0.00  0.00  0.02  0.13  0.00
  YS02001786YS02001788    1.00   0.00  0.00  0.00  0.07  0.93  0.00  0.00  0.00  0.00
  YS02001915YS02001910    1.00   0.00  0.00  0.00  1.00  0.00  0.00  0.00  0.24  0.00
  YS02001918YS02001915    1.00   0.00  0.01  0.00  0.99  0.00  0.00  0.00  0.72  0.00
  YS02001923YS02001920    1.00   0.00  0.00  0.00  1.00  0.00  0.00  0.00  1.00  0.00
  YS02001926YS02001923    1.00   0.00  0.03  0.00  0.00  0.00  0.97  0.00  0.00  0.00
  YS02001929YS02001926    1.00   0.00  0.04  0.00  0.96  0.00  0.00  0.00  0.87  0.00
  YS02001920YS02001918    1.00   0.00  0.01  0.00  0.99  0.00  0.00  0.00  0.00  0.00
  YS02001629YS02163301    1.00   0.05  0.00  0.00  0.94  0.00  0.00  0.00  0.00  0.00
  YS02001619YS02001622    1.00   0.04  0.00  0.00  0.96  0.00  0.00  0.00  0.00  0.00
  YS02001622YS02001625    1.00   0.04  0.00  0.00  0.96  0.00  0.00  0.00  0.12  0.00
  YS02001625YS02001629    1.00   0.04  0.02  0.00  0.93  0.00  0.01  0.00  0.00  0.00
  YS02163301YS02001633    1.00   0.00  0.05  0.00  0.95  0.00  0.00  0.00  0.00  0.00
  YS02163601YS02164001    1.00   0.00  0.03  0.00  0.97  0.00  0.00  0.00  0.00  0.00
  YS02164001YS02001641    1.00   0.01  0.02  0.00  0.97  0.00  0.00  0.00  0.07  0.00
  YS02001641YS02001644    1.00   0.00  0.01  0.00  0.99  0.00  0.00  0.00  0.00  0.00
  YS02001647YS02001649    1.00   0.00  0.06  0.00  0.94  0.00  0.00  0.00  0.01  0.00
  YS02006553YS02006556    1.00   0.02  0.00  0.00  0.98  0.00  0.00  0.00  0.03  0.00
  YS02006556YS02006558    1.00   0.00  0.00  0.00  1.00  0.00  0.00  0.00  0.00  0.00
  YSB6556YSB1171          1.00   0.02  0.01  0.00  0.96  0.00  0.00  0.00  0.00  0.00
  YS02001907YS02006553    1.00   0.00  0.01  0.00  0.98  0.00  0.00  0.00  0.00  0.00
  YS02006558YS02006561    1.00   0.06  0.00  0.00  0.00  0.94  0.00  0.00  0.64  0.00
  YS02001633YS02163601    1.00   0.00  0.01  0.00  0.99  0.00  0.00  0.00  0.20  0.00
  YS02001644YS02001647    1.00   0.00  0.06  0.00  0.94  0.00  0.00  0.00  0.00  0.00
  YS02001745YS02001748    1.00   0.00  0.00  0.00  0.89  0.01  0.00  0.10  0.14  0.00
  YS02001748YS02001751    1.00   0.00  0.00  0.00  0.98  0.02  0.00  0.00  0.23  0.00
  YS02001751YS02001754    1.00   0.00  0.00  0.00  0.93  0.00  0.00  0.06  0.01  0.00
  YS02001754YS02001757    1.00   0.00  0.00  0.00  0.99  0.01  0.00  0.00  0.26  0.00
  YS02001882YS02001884    1.00   0.05  0.00  0.00  0.95  0.00  0.00  0.00  0.00  0.00
  YS02001884YS02001887    1.00   0.03  0.01  0.00  0.97  0.00  0.00  0.00  0.00  0.00
  YS02001890YS02001895    1.00   0.00  0.05  0.00  0.94  0.00  0.00  0.00  0.00  0.00
  YS02001895YS02001898    1.00   0.06  0.00  0.00  0.94  0.00  0.01  0.00  0.00  0.00
  YS02001898YS02001901    1.00   0.05  0.00  0.00  0.94  0.00  0.00  0.00  0.02  0.00
  YS02001901YS02001904    1.00   0.05  0.00  0.00  0.95  0.00  0.00  0.00  0.00  0.00
  YS02001904YS02001907    1.00   0.00  0.05  0.00  0.95  0.00  0.00  0.00  0.00  0.00
  YS02001887YS02001890    1.00   0.00  0.00  0.00  0.98  0.00  0.02  0.00  0.00  0.00
  YS02001652YS02001649    1.00   0.00  0.00  0.00  1.00  0.00  0.00  0.00  0.25  0.00
  YS02001655YS02001652    1.00   0.00  0.00  0.00  0.93  0.00  0.00  0.06  0.02  0.00
  YS02001658YS02001655    1.00   0.00  0.05  0.00  0.93  0.02  0.00  0.00  0.09  0.00
  YS02001661YS02001658    1.00   0.05  0.00  0.00  0.89  0.06  0.00  0.00  0.15  0.00
  YS02001664YS02001661    1.00   0.04  0.00  0.00  0.75  0.21  0.00  0.00  0.86  0.00
  YSB1154YSB6556          1.00   0.04  0.00  0.00  0.96  0.00  0.00  0.00  0.02  0.00
  YSB1174YSB1171          1.00   0.02  0.01  0.00  0.97  0.00  0.00  0.00  0.00  0.00
  YSB1171HS02004479       1.00   0.02  0.00  0.00  0.98  0.00  0.00  0.00  0.13  0.00
  HS02004881HS02006253    1.00   0.02  0.00  0.00  0.88  0.01  0.00  0.09  0.68  0.00
  YS02001793JiankangQianchi    1.00   0.00  0.00  0.00  0.10  0.89  0.00  0.00  0.13  0.00
  YS02001757CaochengTiaoxuchi    1.00   0.00  0.07  0.00  0.93  0.00  0.00  0.00  0.00  0.00
  WSF200WS02003060        1.00   0.00  0.07  0.00  0.83  0.10  0.00  0.00  0.11  0.00
  1                       1.00   0.00  0.00  0.00  0.00  1.00  0.00  0.00  0.37  0.00
  2                       1.00   1.00  0.00  0.00  0.00  0.00  0.00  0.00  0.00  0.00
  3                       1.00   0.24  0.00  0.00  0.00  0.76  0.00  0.00  0.02  0.00
  4                       1.00   1.00  0.00  0.00  0.00  0.00  0.00  0.00  0.00  0.00
  
  
  *************************
  Conduit Surcharge Summary
  *************************
  
  ----------------------------------------------------------------------------
                                                           Hours        Hours 
                         --------- Hours Full --------   Above Full   Capacity
  Conduit                Both Ends  Upstream  Dnstream   Normal Flow   Limited
  ----------------------------------------------------------------------------
  WS02006229WS02006228        0.93      1.00      0.93      4.53         0.93
  WS02006256WS02006235        5.65      5.65      7.52      4.18         0.01
  WS02006249WS02006248        0.01      0.01      0.01      5.22         0.01
  WS02006247WS02006245        0.01      0.01      0.01      5.33         0.01
  WS02006242WS02006240        0.01      0.01      0.16      0.01         0.01
  WS02006239WS02006238        0.29      0.29      0.43      0.01         0.01
  WS02006238WS02006235        0.40      0.40      0.53      0.01         0.01
  WS02006235WS02006234        0.01      0.01      0.34      5.68         0.01
  WS02006234WS02006232        0.18      0.18      0.68      0.01         0.01
  WS02006232WS02006231        0.01      0.01      0.68      0.01         0.01
  WS02006231WS02006230        0.01      0.01      0.01      5.64         0.01
  WS02006230WS02006229        1.49      3.70      1.49      5.71         1.49
  WS02006228WS02006109        0.96      1.28      0.96      5.57         0.96
  WS02006112WS02006115        0.01      0.01      0.40      0.01         0.01
  WS02006111WS02006112        0.01      0.01      5.35      0.01         0.01
  WS02006110WS02006113        0.01      0.01      1.07      0.01         0.01
  WS02006109WS02006110        0.04      0.04      1.28      0.05         0.01
  WS02004405WS02004406        0.01      0.01      0.01      0.27         0.01
  WS02004404WS02004405        0.01      0.01      0.01      5.65         0.01
  WS02003072WS02003073        0.01      0.01      0.01      5.38         0.01
  YS02001759YS02001757        5.34      5.34      5.43      0.01         0.01
  YS02001762YS02001759        5.31      5.31      5.34      0.01         0.01
  YS02001765YS02001762        5.26      5.26      5.31      0.01         0.01
  YS02001770YS02001767        5.19      5.19      5.20      0.01         0.63
  YS02001774YS02001770        5.11      5.11      5.30      0.01         0.01
  YS02001779YS02001774        4.07      4.07      5.30      0.01         0.01
  YS02001649YS02001757        5.31      5.31      5.43      0.01         0.01
  YS02001767YS02001765        5.20      5.20      5.26      0.01         0.01
  YS02001629YS02163301        5.08      5.08      5.17      0.01         0.01
  YS02001619YS02001622        0.96      0.96      2.01      0.01         0.04
  YS02001622YS02001625        2.01      2.01      4.66      0.01         0.01
  YS02001625YS02001629        1.03      1.03      4.66      0.01         0.01
  YS02163301YS02001633        5.17      5.17      5.26      0.01         0.01
  YS02163601YS02164001        5.26      5.26      5.32      0.01         0.01
  YS02164001YS02001641        5.26      5.26      5.28      0.01         0.01
  YS02001641YS02001644        5.28      5.28      5.28      0.01         0.55
  YS02001647YS02001649        4.46      4.46      5.31      0.01         0.01
  YS02001907YS02006553        0.01      0.01      0.52      0.01         0.01
  YS02001633YS02163601        5.24      5.24      5.32      0.01         0.01
  YS02001644YS02001647        4.46      4.46      5.28      0.01         0.01
  YS02001748YS02001751        0.01      0.01      2.49      0.01         0.01
  YS02001751YS02001754        2.49      2.49      4.20      0.01         0.01
  YS02001754YS02001757        4.44      4.44      5.43      0.01         0.01
  YS02001652YS02001649        4.63      4.63      5.31      0.01         0.01
  YS02001655YS02001652        3.05      3.05      4.37      0.01         0.01
  YS02001658YS02001655        0.01      0.01      3.05      0.01         0.01
  YS02001793JiankangQianchi        0.01      0.01      0.37      0.01         0.01
  YS02001757CaochengTiaoxuchi        0.01      0.01      5.43      0.01         0.01
  3                           0.01      0.01      0.01      0.01         0.01
  
  
  ***************
  Pumping Summary
  ***************
  
  ---------------------------------------------------------------------------------------------------------
                                                  Min       Avg       Max     Total     Power    % Time Off
                        Percent   Number of      Flow      Flow      Flow    Volume     Usage    Pump Curve
  Pump                 Utilized   Start-Ups       LPS       LPS       LPS  10^6 ltr     Kw-hr    Low   High
  ---------------------------------------------------------------------------------------------------------
  CC-Pump-1                0.00           0      0.00      0.00      0.00     0.000      0.00    0.0    0.0
  CC-Pump-2               71.38           1      0.00    193.13    200.00     3.878      9.06    0.0   13.2
  JK-Pump-1               65.96           9      0.00    136.54    300.00     1.859     36.00    0.0    0.0
  JK-Pump-2              100.00           1      0.00    161.94    300.00     3.437     65.42    0.0    0.0
  XR-Pump-1               87.23           6      0.00     73.14     95.00     1.738     14.17    0.0    0.0
  XR-Pump-2                0.00           0      0.00      0.00      0.00     0.000      0.00    0.0    0.0
  XR-Pump-3              100.00           2      0.00     89.59     95.00     2.508     21.59    0.0    0.0
  XR-Pump-4              100.00           3      0.00     80.03     95.00     2.337     20.56    0.0    0.0
  

  Analysis begun on:  Wed Jan  5 21:52:54 2022
  Analysis ended on:  Wed Jan  5 21:52:57 2022
  Total elapsed time: 00:00:03