
  EPA STORM WATER MANAGEMENT MODEL - VERSION 5.1 (Build 5.3.0.dev0)
  --------------------------------------------------------------

  WARNING 04: minimum elevation drop used for Conduit WS02004404WS02004405
  WARNING 03: negative offset ignored for Link YS02001904YS02001907
  
  *********************************************************
  NOTE: The summary statistics displayed in this report are
  based on results found at every computational time step,  
  not just on results from each reporting time step.
  *********************************************************
  
  ****************
  Analysis Options
  ****************
  Flow Units ............... LPS
  Process Models:
    Rainfall/Runoff ........ YES
    RDII ................... NO
    Snowmelt ............... NO
    Groundwater ............ NO
    Flow Routing ........... YES
    Ponding Allowed ........ NO
    Water Quality .......... NO
  Infiltration Method ...... HORTON
  Flow Routing Method ...... DYNWAVE
  Surcharge Method ......... EXTRAN
  Starting Date ............ 08/28/2015 08:00:00
  Ending Date .............. 08/28/2015 15:50:00
  Antecedent Dry Days ...... 8.0
  Report Time Step ......... 00:01:00
  Wet Time Step ............ 00:01:00
  Dry Time Step ............ 00:01:00
  Routing Time Step ........ 5.00 sec
  Variable Time Step ....... YES
  Maximum Trials ........... 8
  Number of Threads ........ 4
  Head Tolerance ........... 0.001500 m
  
  
  **************************        Volume         Depth
  Runoff Quantity Continuity     hectare-m            mm
  **************************     ---------       -------
  Total Precipitation ......         3.517         7.699
  Evaporation Loss .........         0.000         0.000
  Infiltration Loss ........         0.893         1.955
  Surface Runoff ...........         1.682         3.682
  Final Storage ............         0.943         2.064
  Continuity Error (%) .....        -0.018
  
  
  **************************        Volume        Volume
  Flow Routing Continuity        hectare-m      10^6 ltr
  **************************     ---------     ---------
  Dry Weather Inflow .......         0.616         6.165
  Wet Weather Inflow .......         1.681        16.806
  Groundwater Inflow .......         0.000         0.000
  RDII Inflow ..............         0.000         0.000
  External Inflow ..........         0.102         1.024
  External Outflow .........         1.639        16.389
  Flooding Loss ............         0.268         2.685
  Evaporation Loss .........         0.000         0.000
  Exfiltration Loss ........         0.000         0.000
  Initial Stored Volume ....         0.076         0.761
  Final Stored Volume ......         0.635         6.345
  Continuity Error (%) .....        -2.684
  
  
  *************************
  Highest Continuity Errors
  *************************
  Node YS02001774 (36.18%)
  Node HS02004842 (23.62%)
  Node YS02001884 (15.39%)
  Node JK-storage (-13.24%)
  Node YSB1171 (5.13%)
  
  
  ***************************
  Time-Step Critical Elements
  ***************************
  Link WS02006252WS02006251 (64.67%)
  Link 3 (29.20%)
  Link WS02006280WS02006229 (1.81%)
  
  
  ********************************
  Highest Flow Instability Indexes
  ********************************
  Link WS02006113WS02006111 (40)
  Link WS02006111WS02006112 (27)
  Link YS02001779YS02001774 (24)
  Link YS02001774YS02001770 (23)
  Link YS02001765YS02001762 (20)
  
  
  *************************
  Routing Time Step Summary
  *************************
  Minimum Time Step           :     0.06 sec
  Average Time Step           :     0.86 sec
  Maximum Time Step           :     5.00 sec
  Percent in Steady State     :    -0.00
  Average Iterations per Step :     3.93
  Percent Not Converging      :    19.33
  
  
  ***************************
  Subcatchment Runoff Summary
  ***************************
  
  ------------------------------------------------------------------------------------------------------------------------------
                            Total      Total      Total      Total     Imperv       Perv      Total       Total     Peak  Runoff
                           Precip      Runon       Evap      Infil     Runoff     Runoff     Runoff      Runoff   Runoff   Coeff
  Subcatchment                 mm         mm         mm         mm         mm         mm         mm    10^6 ltr      LPS
  ------------------------------------------------------------------------------------------------------------------------------
  sub0                       7.70       0.00       0.00       0.54       5.90       0.00       5.90        0.00     2.28   0.766
  sub1                       7.70       0.00       0.00       0.85       5.60       0.00       5.60        0.04    12.01   0.727
  sub2                       7.70       0.00       0.00       2.85       3.94       0.00       3.94        0.04    10.62   0.512
  sub3                       7.70       0.00       0.00       2.85       3.91       0.00       3.91        0.09    21.84   0.508
  sub4                       7.70       0.00       0.00       0.85       5.45       0.00       5.45        0.11    24.49   0.708
  sub5                       7.70       0.00       0.00       0.54       5.85       0.00       5.85        0.07    21.36   0.760
  sub7                       7.70       0.00       0.00       0.69       5.75       0.00       5.75        0.02     7.53   0.747
  sub8                       7.70       0.00       0.00       0.69       5.74       0.00       5.74        0.04    13.30   0.746
  sub9                       7.70       0.00       0.00       0.69       5.74       0.00       5.74        0.03     9.86   0.746
  sub10                      7.70       0.00       0.00       0.62       5.79       0.00       5.79        0.06    21.33   0.752
  sub11                      7.70       0.00       0.00       0.62       5.81       0.00       5.81        0.07    25.01   0.754
  sub12                      7.70       0.00       0.00       1.00       5.51       0.00       5.51        0.05    21.13   0.716
  sub14                      7.70       0.00       0.00       0.69       5.74       0.00       5.74        0.05    19.27   0.745
  sub15                      7.70       0.00       0.00       2.31       4.41       0.00       4.41        0.08    26.13   0.573
  sub16                      7.70       0.00       0.00       2.54       4.24       0.00       4.24        0.04    18.58   0.551
  sub17                      7.70       0.00       0.00       2.46       4.30       0.00       4.30        0.04    15.03   0.559
  sub22                      7.70       0.00       0.00       3.31       3.60       0.00       3.60        0.23    85.60   0.468
  sub23                      7.70       0.00       0.00       2.85       3.98       0.00       3.98        0.19    72.88   0.517
  sub60                      7.70       0.00       0.00       0.92       4.16       0.00       4.16        1.26   124.62   0.540
  sub61                      7.70       0.00       0.00       1.31       4.36       0.00       4.36        1.34   156.18   0.566
  sub62                      7.70       0.00       0.00       0.62       4.70       0.00       4.70        1.44   159.65   0.610
  sub63                      7.70       0.00       0.00       2.23       3.85       0.00       3.85        1.17   145.76   0.500
  sub64                      7.70       0.00       0.00       1.15       3.98       0.00       3.98        1.21   118.39   0.517
  sub65                      7.70       0.00       0.00       1.00       4.03       0.00       4.03        1.24   120.16   0.524
  sub66                      7.70       0.00       0.00       2.23       3.45       0.00       3.45        1.06   108.45   0.448
  sub67                      7.70       0.00       0.00       0.62       5.08       0.00       5.08        1.57   204.88   0.660
  sub68                      7.70       0.00       0.00       1.08       4.61       0.00       4.61        1.42   172.66   0.599
  sub69                      7.70       0.00       0.00       1.15       4.90       0.00       4.90        1.14   171.52   0.636
  sub70                      7.70       5.00       0.00       4.32       6.24       0.00       6.24        1.43   142.17   0.491
  sub71                      7.70       0.00       0.00       0.62       4.52       0.00       4.52        1.07   111.46   0.588
  sub72                      7.70       0.00       0.00       0.54       3.34       0.00       3.34        0.68    53.99   0.434
  sub73                      7.70       6.07       0.00       4.68       6.53       0.00       6.53        1.53   124.36   0.474
  sub74                      7.70       0.00       0.00       5.77       1.47       0.00       1.47        0.59    95.72   0.191
  
  
  ******************
  Node Depth Summary
  ******************
  
  ---------------------------------------------------------------------------------
                                 Average  Maximum  Maximum  Time of Max    Reported
                                   Depth    Depth      HGL   Occurrence   Max Depth
  Node                 Type       Meters   Meters   Meters  days hr:min      Meters
  ---------------------------------------------------------------------------------
  WS02001211           JUNCTION     0.62     0.71     5.55     0  02:41        0.71
  WS02001212           JUNCTION     0.36     0.44     5.51     0  02:41        0.44
  WS02001213           JUNCTION     0.59     0.70     5.46     0  02:41        0.70
  WS02003069           JUNCTION     0.42     0.55     5.13     0  02:43        0.55
  WS02003072           JUNCTION     0.49     0.61     4.98     0  02:43        0.61
  WS02003073           JUNCTION     0.29     0.37     4.44     0  02:44        0.37
  WS02003060           JUNCTION     0.38     0.48     5.42     0  02:42        0.48
  WS02003066           JUNCTION     0.23     0.31     5.86     0  02:29        0.31
  WS02003059           JUNCTION     0.65     0.76     5.45     0  02:42        0.76
  WS02003067           JUNCTION     0.58     0.72     6.04     0  02:29        0.72
  WS02004401           JUNCTION     0.67     0.90     6.90     0  02:26        0.90
  WS02004402           JUNCTION     0.71     0.93     6.89     0  02:26        0.92
  WS02004403           JUNCTION     0.73     0.94     6.87     0  02:26        0.94
  WS02004404           JUNCTION     0.80     1.01     6.86     0  02:26        1.01
  WS02004406           JUNCTION     0.81     0.99     6.82     0  02:27        0.99
  WS02004409           JUNCTION     0.49     0.71     6.48     0  02:28        0.71
  WS02004410           JUNCTION     0.51     0.72     6.44     0  02:28        0.72
  WS02004411           JUNCTION     0.53     0.72     6.40     0  02:28        0.72
  WS02004412           JUNCTION     0.54     0.73     6.37     0  02:28        0.73
  WS02004413           JUNCTION     0.70     0.88     6.35     0  02:29        0.88
  WS02004405           JUNCTION     0.80     1.00     6.85     0  02:26        0.99
  WS02006109           JUNCTION     0.75     1.04     7.66     0  02:22        1.03
  WS02006110           JUNCTION     0.75     0.96     7.55     0  02:22        0.96
  WS02006111           JUNCTION     0.22     0.30     7.01     0  02:24        0.30
  WS02006112           JUNCTION     0.84     1.16     7.05     0  02:28        1.16
  WS02006113           JUNCTION     0.34     0.48     7.38     0  02:23        0.48
  WS02006115           JUNCTION     0.57     0.81     6.95     0  02:26        0.81
  WS02006116           JUNCTION     0.65     0.89     6.93     0  02:26        0.88
  WS02006230           JUNCTION     0.72     1.09     7.83     0  02:22        1.09
  WS02006231           JUNCTION     0.48     0.75     7.87     0  02:22        0.75
  WS02006232           JUNCTION     0.62     0.87     7.91     0  02:22        0.87
  WS02006234           JUNCTION     0.53     0.79     7.95     0  02:22        0.79
  WS02006235           JUNCTION     0.56     0.83     7.99     0  02:24        0.82
  WS02006238           JUNCTION     0.59     0.85     8.00     0  02:24        0.84
  WS02006240           JUNCTION     0.48     0.74     8.03     0  02:24        0.74
  WS02006242           JUNCTION     0.53     0.79     8.06     0  02:24        0.79
  WS02006243           JUNCTION     0.41     0.66     8.08     0  02:24        0.66
  WS02006245           JUNCTION     0.39     0.62     8.10     0  02:25        0.62
  WS02006247           JUNCTION     0.41     0.62     8.12     0  02:25        0.62
  WS02006248           JUNCTION     0.35     0.55     8.13     0  02:25        0.55
  WS02006249           JUNCTION     0.39     0.55     8.15     0  02:25        0.55
  WS02006239           JUNCTION     0.54     0.80     8.01     0  02:24        0.80
  WS02006251           JUNCTION     0.37     0.52     8.19     0  02:24        0.52
  WS02006252           JUNCTION     0.32     0.35     8.59     0  02:14        0.35
  WS02006253           JUNCTION     0.40     0.55     8.19     0  02:25        0.55
  WS02006256           JUNCTION     1.03     1.21     8.14     0  02:20        1.21
  WS02004138           JUNCTION     0.14     0.17     7.42     0  01:30        0.17
  WS02004407           JUNCTION     0.22     0.31     6.63     0  02:27        0.31
  WS02006228           JUNCTION     0.75     1.09     7.74     0  02:22        1.08
  WS02006229           JUNCTION     0.73     1.09     7.79     0  02:22        1.09
  WS02006280           JUNCTION     0.06     0.18     8.45     0  02:14        0.18
  WS02006284           JUNCTION     0.35     0.53     8.93     0  02:14        0.53
  WS02006287           JUNCTION     0.09     0.27     9.22     0  02:13        0.27
  WSF200               JUNCTION     0.22     0.32     5.55     0  02:33        0.32
  HS02004901           JUNCTION     0.11     0.28    10.10     0  02:11        0.28
  HS02004881           JUNCTION     0.01     0.03     9.06     0  02:14        0.03
  HS02004876           JUNCTION     0.04     0.11     9.14     0  02:08        0.11
  HS02004870           JUNCTION     0.01     0.06     9.34     0  02:14        0.06
  HS02004862           JUNCTION     0.02     0.06     9.45     0  02:15        0.06
  HS02004856           JUNCTION     0.08     0.12     9.54     0  02:14        0.12
  HS02004852           JUNCTION     0.01     0.04     9.55     0  02:15        0.04
  HS02004848           JUNCTION     0.01     0.04     9.64     0  02:14        0.04
  HS02004842           JUNCTION     0.33     0.37     9.64     0  02:14        0.37
  HS02004837           JUNCTION     0.03     0.06     9.64     0  02:14        0.06
  HS02004830           JUNCTION     0.04     0.07     9.54     0  02:14        0.07
  HS02004824           JUNCTION     0.02     0.05     9.45     0  02:17        0.05
  HS02004817           JUNCTION     0.43     0.57     9.42     0  02:14        0.57
  HS02004807           JUNCTION     0.12     0.25     9.42     0  02:14        0.25
  HS02004802           JUNCTION     0.15     0.28     9.41     0  02:14        0.28
  HS02004799           JUNCTION     0.11     0.32     9.53     0  02:12        0.32
  HS02004792           JUNCTION     0.03     0.13     9.66     0  02:12        0.13
  HS02004788           JUNCTION     0.02     0.10    10.00     0  02:12        0.10
  HS02004785           JUNCTION     0.04     0.17    10.07     0  02:12        0.17
  HS02004777           JUNCTION     0.14     0.29    10.09     0  02:12        0.29
  HS02004770           JUNCTION     0.11     0.27    10.10     0  02:11        0.27
  HS02004480           JUNCTION     0.07     0.26     9.50     0  02:13        0.26
  HS02004479           JUNCTION     0.11     0.29     9.50     0  02:13        0.29
  HS02004478           JUNCTION     0.05     0.17     9.40     0  02:14        0.17
  YS02001745           JUNCTION     0.60     0.85     8.36     0  06:54        0.84
  YS02001748           JUNCTION     0.99     1.33     8.40     0  03:46        1.28
  YS02001751           JUNCTION     1.17     1.90     8.78     0  03:12        1.48
  YS02001754           JUNCTION     1.42     1.90     8.51     0  03:12        1.75
  YS02001762           JUNCTION     1.62     1.98     8.38     0  04:47        1.97
  YS02001765           JUNCTION     1.57     1.93     8.38     0  04:44        1.92
  YS02001767           JUNCTION     1.54     1.89     8.38     0  04:44        1.88
  YS02001770           JUNCTION     1.53     1.88     8.38     0  04:39        1.87
  YS02001774           JUNCTION     1.60     1.96     8.38     0  04:30        1.95
  YS02001779           JUNCTION     1.35     1.68     8.37     0  04:30        1.68
  YS02001882           JUNCTION     0.34     0.60     7.31     0  02:46        0.59
  YS02001884           JUNCTION     0.43     0.70     7.31     0  02:46        0.69
  YS02001759           JUNCTION     1.65     2.02     8.38     0  04:39        2.00
  YS02001887           JUNCTION     0.51     0.78     7.31     0  02:46        0.78
  YS02001890           JUNCTION     0.54     0.80     7.31     0  02:46        0.80
  YS02001898           JUNCTION     0.31     0.56     7.29     0  02:45        0.56
  YS02001901           JUNCTION     0.43     0.69     7.30     0  02:47        0.69
  YS02001904           JUNCTION     0.41     0.66     7.29     0  02:50        0.66
  YS02001907           JUNCTION     0.73     1.00     7.29     0  02:43        1.00
  YS02001910           JUNCTION     0.52     0.79     7.30     0  02:44        0.79
  YS02001915           JUNCTION     0.33     0.58     7.29     0  02:44        0.57
  YS02001918           JUNCTION     0.11     0.22     7.29     0  02:45        0.22
  YS02001619           JUNCTION     1.13     1.52     8.45     0  03:38        1.46
  YS02001629           JUNCTION     1.48     1.85     8.40     0  03:51        1.83
  YS02001641           JUNCTION     1.59     1.93     8.37     0  04:15        1.93
  YS02001644           JUNCTION     1.59     1.92     8.35     0  04:12        1.92
  YS02001652           JUNCTION     1.43     2.00     8.60     0  03:07        1.79
  YS02001655           JUNCTION     1.20     2.13     8.98     0  03:31        1.56
  YS02001920           JUNCTION     0.20     0.29     7.30     0  02:46        0.29
  YS02001923           JUNCTION     0.08     0.11     7.37     0  03:01        0.11
  YS02001926           JUNCTION     0.16     0.21     7.66     0  03:01        0.21
  YS02001929           JUNCTION     0.08     0.11     7.80     0  03:01        0.11
  YS02001658           JUNCTION     0.93     2.23     9.37     0  03:31        1.37
  YS02001661           JUNCTION     0.71     1.05     8.46     0  04:35        1.05
  YS02001664           JUNCTION     0.29     0.54     8.46     0  04:36        0.52
  YS02001622           JUNCTION     1.16     1.53     8.43     0  03:38        1.49
  YS02001633           JUNCTION     1.58     1.94     8.39     0  04:27        1.93
  YS02001649           JUNCTION     1.63     2.02     8.41     0  03:31        1.98
  YS02001757           JUNCTION     1.75     2.11     8.37     0  04:47        2.10
  YS02001895           JUNCTION     0.30     0.55     7.30     0  02:44        0.55
  YS02001625           JUNCTION     1.44     1.78     8.38     0  03:36        1.78
  YS02163301           JUNCTION     1.51     1.88     8.40     0  04:27        1.87
  YS02163601           JUNCTION     1.63     1.99     8.39     0  04:27        1.98
  YS02164001           JUNCTION     1.57     1.92     8.38     0  04:26        1.91
  YS02001647           JUNCTION     1.42     1.76     8.37     0  04:53        1.75
  YSB1154              JUNCTION     0.24     0.44     9.50     0  02:13        0.44
  YSB6556              JUNCTION     0.14     0.33     9.50     0  02:12        0.33
  YSB1174              JUNCTION     0.20     0.39     9.50     0  02:13        0.39
  YSB1171              JUNCTION     0.39     0.60     9.50     0  02:13        0.60
  YS02006553           JUNCTION     0.74     1.02     7.31     0  02:48        1.01
  YS02006561           JUNCTION     0.17     0.32     6.98     0  02:47        0.31
  YS02006556           JUNCTION     0.71     0.99     7.30     0  02:48        0.97
  YS02006558           JUNCTION     0.75     1.03     7.29     0  02:40        1.02
  YS02001783           JUNCTION     0.33     1.08     7.23     0  02:55        0.84
  YS02001784           JUNCTION     0.36     1.05     7.11     0  02:55        0.88
  YS02001786           JUNCTION     0.33     1.14     7.17     0  02:55        0.85
  YS02001788           JUNCTION     0.28     1.06     7.04     0  02:55        0.84
  YS02001790           JUNCTION     0.39     1.72     7.37     0  02:53        1.10
  YS02001791           JUNCTION     0.37     1.54     7.01     0  02:52        1.19
  YS02001793           JUNCTION     0.52     2.85     7.68     0  02:49        1.78
  WS02004139           JUNCTION     0.56     0.65     5.56     0  02:40        0.65
  WSC                  OUTFALL      0.29     0.37     1.04     0  02:44        0.37
  3                    OUTFALL      0.08     0.20     6.20     0  02:20        0.20
  4                    OUTFALL      0.00     0.05     7.05     0  02:25        0.05
  5                    OUTFALL      0.00     0.00     5.00     0  00:00        0.00
  JK-storage           STORAGE      1.92     5.80     6.60     0  02:54        5.80
  CC-storage           STORAGE      0.99     1.36     8.36     0  06:55        1.36
  XR-storage           STORAGE      7.44     7.72     5.72     0  02:25        7.72
  
  
  *******************
  Node Inflow Summary
  *******************
  
  -------------------------------------------------------------------------------------------------
                                  Maximum  Maximum                  Lateral       Total        Flow
                                  Lateral    Total  Time of Max      Inflow      Inflow     Balance
                                   Inflow   Inflow   Occurrence      Volume      Volume       Error
  Node                 Type           LPS      LPS  days hr:min    10^6 ltr    10^6 ltr     Percent
  -------------------------------------------------------------------------------------------------
  WS02001211           JUNCTION      7.35   293.24     0  07:00       0.207        5.97       0.543
  WS02001212           JUNCTION      0.00   293.96     0  07:00           0        5.94       0.252
  WS02001213           JUNCTION      0.00   294.70     0  07:00           0        5.92       0.366
  WS02003069           JUNCTION      0.32   842.27     0  02:42     0.00902        13.5       0.197
  WS02003072           JUNCTION      0.00   842.02     0  02:43           0        13.5       0.247
  WS02003073           JUNCTION      1.82   843.68     0  02:44      0.0514        13.5       0.276
  WS02003060           JUNCTION     16.53   842.03     0  02:42       0.466        13.5       0.189
  WS02003066           JUNCTION      0.00   594.25     0  02:29           0        7.22       0.060
  WS02003059           JUNCTION      0.00   296.26     0  07:01           0        5.91       0.631
  WS02003067           JUNCTION      0.00   594.03     0  02:29           0        7.23       0.128
  WS02004401           JUNCTION      0.00   600.30     0  02:26           0        7.46       0.284
  WS02004402           JUNCTION      0.00   599.93     0  02:26           0        7.44       0.268
  WS02004403           JUNCTION      0.00   599.17     0  02:26           0        7.42       0.244
  WS02004404           JUNCTION      0.16   599.03     0  02:26     0.00457         7.4       0.185
  WS02004406           JUNCTION      0.00   599.24     0  02:26           0        7.37       0.450
  WS02004409           JUNCTION      0.00   598.38     0  02:27           0        7.33       0.217
  WS02004410           JUNCTION      0.00   596.59     0  02:27           0        7.31       0.246
  WS02004411           JUNCTION      0.00   595.28     0  02:28           0         7.3       0.253
  WS02004412           JUNCTION      0.00   594.67     0  02:28           0        7.28       0.274
  WS02004413           JUNCTION      0.00   594.23     0  02:28           0        7.26       0.407
  WS02004405           JUNCTION      0.04   599.23     0  02:26     0.00107        7.39       0.276
  WS02006109           JUNCTION      1.23   596.27     0  02:22      0.0347        7.54       0.283
  WS02006110           JUNCTION      0.00   596.27     0  02:22           0        7.52       0.261
  WS02006111           JUNCTION      0.00   624.23     0  02:23           0        7.49       0.057
  WS02006112           JUNCTION     15.03   612.03     0  02:24      0.0369        7.52       0.384
  WS02006113           JUNCTION      0.00   596.82     0  02:22           0         7.5       0.127
  WS02006115           JUNCTION      0.00   617.27     0  02:22           0         7.5       0.263
  WS02006116           JUNCTION      0.00   602.20     0  02:24           0        7.48       0.250
  WS02006230           JUNCTION     10.28   340.27     0  02:50        0.29        6.37       0.228
  WS02006231           JUNCTION      0.00   329.02     0  02:50           0        6.08       0.146
  WS02006232           JUNCTION      0.00   328.99     0  02:50           0         6.1       0.263
  WS02006234           JUNCTION      0.00   328.15     0  02:50           0         6.1       0.132
  WS02006235           JUNCTION      0.00   327.73     0  02:50           0        6.15       0.167
  WS02006238           JUNCTION      0.00   265.23     0  03:00           0        4.09       0.186
  WS02006240           JUNCTION      0.00   249.33     0  03:00           0        4.08       0.282
  WS02006242           JUNCTION      0.00   243.75     0  02:38           0        4.08       0.344
  WS02006243           JUNCTION      0.00   245.03     0  02:18           0        4.08       0.138
  WS02006245           JUNCTION      0.00   252.76     0  02:18           0        4.09       0.214
  WS02006247           JUNCTION      0.00   257.48     0  02:18           0         4.1       0.166
  WS02006248           JUNCTION      0.00   259.99     0  02:18           0         4.1       0.104
  WS02006249           JUNCTION      0.00   263.32     0  02:18           0        4.13       0.245
  WS02006239           JUNCTION      0.00   257.73     0  03:00           0        4.08       0.275
  WS02006251           JUNCTION      0.08   265.11     0  02:17     0.00217        4.14       0.211
  WS02006252           JUNCTION      0.00   200.00     0  02:14           0        3.93       0.011
  WS02006253           JUNCTION      2.28    67.60     0  02:14     0.00477       0.214       1.650
  WS02006256           JUNCTION      0.00   599.98     0  02:20           0        4.98       0.058
  WS02004138           JUNCTION      0.00   285.00     0  00:40           0        5.79       0.054
  WS02004407           JUNCTION      0.00   598.76     0  02:27           0        7.34       0.098
  WS02006228           JUNCTION      0.00   595.05     0  02:22           0        7.52       0.201
  WS02006229           JUNCTION      0.00   595.37     0  02:22           0        7.54       0.179
  WS02006280           JUNCTION      0.00   336.70     0  02:14           0        1.19       0.006
  WS02006284           JUNCTION      0.10   336.64     0  02:14      0.0027        1.19       0.095
  WS02006287           JUNCTION      0.00   336.52     0  02:14           0        1.19       0.061
  WSF200               JUNCTION      0.00   594.28     0  02:29           0        7.21       0.058
  HS02004901           JUNCTION     18.58    18.58     0  02:08      0.0444      0.0445       4.109
  HS02004881           JUNCTION      7.53    65.87     0  02:14      0.0194       0.207       0.208
  HS02004876           JUNCTION     12.01    59.05     0  02:14      0.0372       0.188       0.285
  HS02004870           JUNCTION     13.30    47.29     0  02:14      0.0367       0.151       0.070
  HS02004862           JUNCTION     10.82    34.86     0  02:14      0.0424       0.114       0.149
  HS02004856           JUNCTION      9.86    24.13     0  02:14      0.0276      0.0735       2.001
  HS02004852           JUNCTION      0.00    14.89     0  02:14           0      0.0459       0.114
  HS02004848           JUNCTION     21.84    21.84     0  02:16      0.0879      0.0879       0.049
  HS02004842           JUNCTION      0.00     7.81     0  02:26           0       0.055      30.932
  HS02004837           JUNCTION     27.68    33.96     0  02:13       0.243       0.285       0.285
  HS02004830           JUNCTION      0.15    34.09     0  02:14     0.00423       0.275       0.450
  HS02004824           JUNCTION     24.54    58.34     0  02:17       0.115       0.389       0.138
  HS02004817           JUNCTION      0.60    58.92     0  02:17      0.0169       0.406       4.286
  HS02004807           JUNCTION     25.01    81.76     0  02:15      0.0674       0.456       0.934
  HS02004802           JUNCTION      0.00    82.40     0  02:16           0       0.452       0.907
  HS02004799           JUNCTION     19.27   217.43     0  02:12      0.0546        0.64       0.357
  HS02004792           JUNCTION     85.88   198.48     0  02:11       0.235       0.586       0.069
  HS02004788           JUNCTION     27.80   115.36     0  02:12       0.123       0.352       0.111
  HS02004785           JUNCTION      0.15    87.97     0  02:11     0.00423       0.231       0.210
  HS02004777           JUNCTION      0.03    88.42     0  02:10    0.000846       0.232       2.287
  HS02004770           JUNCTION     72.88    89.88     0  02:09        0.19       0.232       1.347
  HS02004480           JUNCTION      0.00   256.48     0  02:13           0       0.752       0.103
  HS02004479           JUNCTION      0.00    39.94     0  02:14           0       0.124       0.594
  HS02004478           JUNCTION      0.00   336.51     0  02:14           0        1.19       0.051
  YS02001745           JUNCTION    124.63   251.19     0  03:28        1.26         1.3       0.837
  YS02001748           JUNCTION      0.04   336.90     0  03:28     0.00127        1.29       1.757
  YS02001751           JUNCTION      0.01   352.26     0  03:02     0.00031        1.23       1.907
  YS02001754           JUNCTION      0.26   202.68     0  03:02     0.00733        1.21       2.044
  YS02001762           JUNCTION      0.00   183.68     0  02:38           0        1.38       1.539
  YS02001765           JUNCTION      0.00   183.29     0  02:38           0        1.38       1.783
  YS02001767           JUNCTION      0.54   186.04     0  02:30      0.0151         1.4       2.605
  YS02001770           JUNCTION    159.80   184.10     0  02:25        1.45        1.46       2.183
  YS02001774           JUNCTION      0.00    65.38     0  02:11           0      0.0693      56.682
  YS02001779           JUNCTION      0.01    48.34     0  02:24    0.000141      0.0291     103.453
  YS02001882           JUNCTION      0.00     7.35     0  02:45           0     0.00985      23.384
  YS02001884           JUNCTION      0.00    17.98     0  02:04           0      0.0343      18.188
  YS02001759           JUNCTION    156.22   339.87     0  02:38        1.34        2.68       0.848
  YS02001887           JUNCTION    205.33   210.49     0  02:42        1.58         1.6       0.477
  YS02001890           JUNCTION      0.00   211.57     0  02:47           0        1.56       0.533
  YS02001898           JUNCTION      0.00   212.78     0  02:46           0        1.55       0.164
  YS02001901           JUNCTION      0.00   218.41     0  02:47           0        1.55       0.385
  YS02001904           JUNCTION      0.00   224.97     0  02:48           0        1.55       0.358
  YS02001907           JUNCTION      0.00   411.56     0  02:48           0        3.36       0.681
  YS02001910           JUNCTION      0.00   184.64     0  02:56           0        1.82       0.591
  YS02001915           JUNCTION    111.48   175.06     0  02:44        1.07        1.83       0.278
  YS02001918           JUNCTION      0.00    60.26     0  02:56           0       0.758       0.184
  YS02001619           JUNCTION    108.45   108.45     0  02:49        1.06        1.06       1.132
  YS02001629           JUNCTION      0.00   223.08     0  03:07           0       0.984       2.925
  YS02001641           JUNCTION      0.00   277.40     0  02:30           0        2.13       0.986
  YS02001644           JUNCTION    118.43   391.58     0  02:29        1.21        3.32       0.782
  YS02001652           JUNCTION      0.00   219.67     0  02:27           0        1.11       2.099
  YS02001655           JUNCTION      0.15   389.09     0  02:56     0.00434        1.13       2.065
  YS02001920           JUNCTION      2.87    56.87     0  03:01      0.0809       0.761       0.312
  YS02001923           JUNCTION      0.04    54.00     0  03:01     0.00106        0.68       0.056
  YS02001926           JUNCTION      0.05    54.02     0  03:01     0.00147       0.682       0.386
  YS02001929           JUNCTION     53.99    53.99     0  03:01       0.681       0.681       0.054
  YS02001658           JUNCTION      0.00   459.36     0  03:29           0        1.24       1.561
  YS02001661           JUNCTION      0.00   385.46     0  04:19           0        1.72       0.874
  YS02001664           JUNCTION    145.76   342.40     0  04:20        1.17        1.64       0.316
  YS02001622           JUNCTION      0.00   157.85     0  03:07           0        1.05       3.105
  YS02001633           JUNCTION    120.36   279.87     0  02:30        1.25        2.19       1.460
  YS02001649           JUNCTION      0.00   553.56     0  02:28           0        3.88       0.958
  YS02001757           JUNCTION      0.00   994.24     0  02:28           0        7.64       1.217
  YS02001895           JUNCTION      0.00   209.86     0  02:44           0        1.56       0.269
  YS02001625           JUNCTION      0.00   223.38     0  03:07           0        1.02       3.989
  YS02163301           JUNCTION      0.00   173.59     0  02:29           0       0.973       2.478
  YS02163601           JUNCTION      0.11   271.67     0  02:30      0.0031        2.14       1.399
  YS02164001           JUNCTION      0.00   271.72     0  02:29           0        2.12       0.923
  YS02001647           JUNCTION      0.00   398.35     0  02:29           0        2.84       0.973
  YSB1154              JUNCTION     21.36    21.36     0  02:12      0.0662      0.0675       2.182
  YSB6556              JUNCTION      0.00    21.33     0  02:12           0      0.0685       1.856
  YSB1174              JUNCTION     21.13    21.13     0  02:07      0.0481      0.0491       2.680
  YSB1171              JUNCTION      0.00    39.84     0  02:12           0       0.123       5.412
  YS02006553           JUNCTION      0.00   393.37     0  02:45           0        3.35       0.436
  YS02006561           JUNCTION      0.00   599.66     0  02:42           0        4.74      -0.002
  YS02006556           JUNCTION      0.00   397.92     0  02:49           0        3.36       0.318
  YS02006558           JUNCTION    173.54   585.24     0  02:49        1.44        4.77       0.115
  YS02001783           JUNCTION      0.00   568.28     0  02:55           0        4.74       0.039
  YS02001784           JUNCTION      1.06   571.04     0  02:55      0.0299        4.76       0.060
  YS02001786           JUNCTION      0.06   571.55     0  02:56     0.00159        4.76       0.058
  YS02001788           JUNCTION      0.07   570.22     0  02:56       0.002        4.76       0.034
  YS02001790           JUNCTION      0.15   577.33     0  02:56     0.00437        4.77       0.042
  YS02001791           JUNCTION      0.00   577.35     0  02:56           0        4.76       0.021
  YS02001793           JUNCTION      0.00   668.02     0  02:49           0        4.76      -0.002
  WS02004139           JUNCTION      0.32   285.38     0  01:30     0.00905        5.79       0.532
  WSC                  OUTFALL       0.00   843.32     0  02:44           0        13.5       0.000
  3                    OUTFALL       0.00   507.38     0  02:20           0         2.9       0.000
  4                    OUTFALL       0.00    28.88     0  02:25           0      0.0162       0.000
  5                    OUTFALL       0.00     0.00     0  00:00           0           0       0.000 ltr
  JK-storage           STORAGE       0.00   985.53     0  02:48           0        4.91     -11.689
  CC-storage           STORAGE       0.00   993.78     0  02:28           0        7.55       0.839
  XR-storage           STORAGE     401.86   401.86     0  02:45        7.76        8.36      -0.002
  
  
  **********************
  Node Surcharge Summary
  **********************
  
  Surcharging occurs when water rises above the top of the highest conduit.
  ---------------------------------------------------------------------
                                               Max. Height   Min. Depth
                                   Hours       Above Crown    Below Rim
  Node                 Type      Surcharged         Meters       Meters
  ---------------------------------------------------------------------
  WS02004404           JUNCTION        0.08          0.006        2.774
  WS02006109           JUNCTION        1.11          0.217        1.603
  WS02006110           JUNCTION        0.39          0.053        1.797
  WS02006112           JUNCTION        0.58          0.162        1.518
  WS02006230           JUNCTION        0.05          0.007        1.563
  WS02006231           JUNCTION        0.16          0.041        1.489
  WS02006232           JUNCTION        0.68          0.169        1.311
  WS02006234           JUNCTION        0.34          0.073        1.167
  WS02006235           JUNCTION        0.50          0.118        1.172
  WS02006238           JUNCTION        0.56          0.134        1.296
  WS02006240           JUNCTION        0.15          0.026        1.364
  WS02006242           JUNCTION        0.31          0.059        0.761
  WS02006239           JUNCTION        0.30          0.061        1.229
  WS02006228           JUNCTION        1.08          0.264        1.936
  YS02001748           JUNCTION        3.94          0.246        0.944
  YS02001751           JUNCTION        4.51          0.898        0.302
  YS02001754           JUNCTION        5.18          0.853        0.297
  YS02001762           JUNCTION        5.48          0.978        0.172
  YS02001765           JUNCTION        5.46          0.926        0.174
  YS02001767           JUNCTION        5.41          0.891        0.139
  YS02001770           JUNCTION        5.34          0.851        0.069
  YS02001774           JUNCTION        5.47          0.956        0.094
  YS02001779           JUNCTION        5.10          0.680        0.000
  YS02001759           JUNCTION        5.49          1.015        0.195
  YS02001619           JUNCTION        4.42          0.517        0.093
  YS02001629           JUNCTION        4.44          0.470        0.000
  YS02001641           JUNCTION        5.46          0.934        0.166
  YS02001644           JUNCTION        5.46          0.920        0.000
  YS02001652           JUNCTION        5.23          0.970        0.160
  YS02001655           JUNCTION        4.59          1.131        0.069
  YS02001658           JUNCTION        3.93          1.225        0.075
  YS02001622           JUNCTION        4.51          0.527        0.093
  YS02001633           JUNCTION        5.44          0.919        0.141
  YS02001649           JUNCTION        5.48          1.015        0.035
  YS02001757           JUNCTION        5.53          1.114        0.096
  YS02001625           JUNCTION        5.26          0.780        0.000
  YS02163301           JUNCTION        5.39          0.879        0.151
  YS02163601           JUNCTION        5.47          0.987        0.093
  YS02164001           JUNCTION        5.45          0.918        0.182
  YS02001647           JUNCTION        5.24          0.760        0.140
  YS02006553           JUNCTION        0.04          0.021        1.169
  YS02001783           JUNCTION        0.01          0.284        1.316
  YS02001784           JUNCTION        0.02          0.247        1.243
  YS02001786           JUNCTION        0.01          0.336        1.094
  YS02001788           JUNCTION        0.01          0.264        1.216
  YS02001790           JUNCTION        1.15          0.924        0.233
  YS02001791           JUNCTION        1.32          0.739        1.181
  YS02001793           JUNCTION        1.65          1.850        0.750
  
  
  *********************
  Node Flooding Summary
  *********************
  
  Flooding refers to all water that overflows a node, whether it ponds or not.
  --------------------------------------------------------------------------
                                                             Total   Maximum
                                 Maximum   Time of Max       Flood    Ponded
                        Hours       Rate    Occurrence      Volume     Depth
  Node                 Flooded       LPS   days hr:min    10^6 ltr    Meters
  --------------------------------------------------------------------------
  YS02001779              0.34      2.86      0  06:52       0.001     0.000
  YS02001629              0.01      4.05      0  03:51       0.000     0.000
  YS02001644              2.34    190.56      0  04:51       0.454     0.000
  YS02001625              0.06      9.77      0  03:51       0.000     0.000
  JK-storage              0.74    516.56      0  03:00       0.580     0.000
  XR-storage              3.94    286.33      0  03:10       1.649     0.000
  
  
  **********************
  Storage Volume Summary
  **********************
  
  --------------------------------------------------------------------------------------------------
                         Average     Avg  Evap Exfil       Maximum     Max    Time of Max    Maximum
                          Volume    Pcnt  Pcnt  Pcnt        Volume    Pcnt     Occurrence    Outflow
  Storage Unit           1000 m3    Full  Loss  Loss       1000 m3    Full    days hr:min        LPS
  --------------------------------------------------------------------------------------------------
  JK-storage               0.097      33     0     0         0.291     100       0  02:54     599.98
  CC-storage               2.765      18     0     0         3.778      24       0  06:55     200.00
  XR-storage               0.893      96     0     0         0.926     100       0  02:25     285.00
  
  
  ***********************
  Outfall Loading Summary
  ***********************
  
  -----------------------------------------------------------
                         Flow       Avg       Max       Total
                         Freq      Flow      Flow      Volume
  Outfall Node           Pcnt       LPS       LPS    10^6 ltr
  -----------------------------------------------------------
  WSC                   99.99    548.95    843.32      13.476
  3                     80.22    172.15    507.38       2.897
  4                      6.72     12.06     28.88       0.016
  5                      0.00      0.00      0.00       0.000
  -----------------------------------------------------------
  System                46.73    733.16   1127.68      16.389
  
  
  ********************
  Link Flow Summary
  ********************
  
  -----------------------------------------------------------------------------
                                 Maximum  Time of Max   Maximum    Max/    Max/
                                  |Flow|   Occurrence   |Veloc|    Full    Full
  Link                 Type          LPS  days hr:min     m/sec    Flow   Depth
  -----------------------------------------------------------------------------
  WS02003066WSF200     CONDUIT    594.28     0  02:29      2.90    0.10    0.24
  WS02006287WS02006284 CONDUIT    336.55     0  02:14      1.91    0.16    0.28
  WS02006284WS02006280 CONDUIT    336.70     0  02:14      2.15    0.14    0.25
  WS02006280WS02006229 CONDUIT    336.70     0  02:14      3.46    0.07    0.18
  WS02006229WS02006228 CONDUIT    595.05     0  02:22      1.18    1.97    1.00
  WS02006256WS02006235 CONDUIT    166.25     0  00:01      2.58    1.76    1.00
  WS02006253WS02006251 CONDUIT     67.48     0  02:11      0.59    0.20    0.76
  WS02006252WS02006251 CONDUIT    200.99     0  02:14      1.97    0.74    0.76
  WS02006251WS02006249 CONDUIT    263.32     0  02:18      1.02    0.76    0.77
  WS02006249WS02006248 CONDUIT    259.99     0  02:18      1.10    1.42    0.77
  WS02006248WS02006247 CONDUIT    257.48     0  02:18      1.07    0.56    0.83
  WS02006247WS02006245 CONDUIT    252.76     0  02:18      1.02    2.00    0.88
  WS02006245WS02006243 CONDUIT    245.03     0  02:18      1.06    0.72    0.91
  WS02006243WS02006242 CONDUIT    243.75     0  02:38      0.82    0.52    0.97
  WS02006242WS02006240 CONDUIT    249.33     0  03:00      0.77    0.99    1.00
  WS02006240WS02006239 CONDUIT    257.73     0  03:00      0.83    0.81    1.00
  WS02006239WS02006238 CONDUIT    265.23     0  03:00      0.77    0.85    1.00
  WS02006238WS02006235 CONDUIT    269.64     0  03:00      1.25    0.60    1.00
  WS02006235WS02006234 CONDUIT    328.15     0  02:50      0.95    3.46    1.00
  WS02006234WS02006232 CONDUIT    328.99     0  02:50      1.13    0.67    1.00
  WS02006232WS02006231 CONDUIT    329.02     0  02:50      0.95    0.69    1.00
  WS02006231WS02006230 CONDUIT    329.99     0  02:50      1.30    5.01    1.00
  WS02006230WS02006229 CONDUIT    341.52     0  02:49      0.89    7.60    1.00
  WS02006228WS02006109 CONDUIT    595.04     0  02:22      1.18    2.60    1.00
  WS02006116WS02004401 CONDUIT    600.30     0  02:26      0.81    0.83    0.89
  WS02006115WS02006116 CONDUIT    602.20     0  02:24      0.91    0.77    0.82
  WS02006113WS02006111 CONDUIT    624.23     0  02:23      2.55    0.75    0.49
  WS02006112WS02006115 CONDUIT    617.27     0  02:22      0.84    0.36    0.90
  WS02006111WS02006112 CONDUIT    602.68     0  02:24      1.65    0.29    0.68
  WS02006110WS02006113 CONDUIT    596.82     0  02:22      1.39    0.54    0.80
  WS02006109WS02006110 CONDUIT    596.27     0  02:22      1.19    1.15    1.00
  WS02004411WS02004412 CONDUIT    594.67     0  02:28      0.97    0.84    0.73
  WS02004401WS02004402 CONDUIT    599.93     0  02:26      0.80    0.72    0.91
  WS02004413WS02003067 CONDUIT    594.03     0  02:29      1.17    0.25    0.61
  WS02004412WS02004413 CONDUIT    594.23     0  02:28      0.88    0.40    0.81
  WS02004410WS02004411 CONDUIT    595.28     0  02:28      0.98    0.81    0.72
  WS02004409WS02004410 CONDUIT    596.59     0  02:27      1.01    0.77    0.71
  WS02004407WS02004409 CONDUIT    598.38     0  02:27      1.53    0.21    0.51
  WS02004406WS02004407 CONDUIT    598.76     0  02:27      1.11    0.27    0.65
  WS02004405WS02004406 CONDUIT    599.24     0  02:26      0.76    1.18    0.99
  WS02004404WS02004405 CONDUIT    599.19     0  02:26      0.84    5.87    1.00
  WS02004403WS02004404 CONDUIT    598.87     0  02:26      0.77    0.43    0.97
  WS02004402WS02004403 CONDUIT    599.17     0  02:26      0.79    0.86    0.93
  WS02004139WS02001211 CONDUIT    285.89     0  07:00      0.53    0.36    0.53
  WS02004138WS02004139 CONDUIT    285.06     0  01:30      2.39    0.06    0.38
  WS02003067WS02003066 CONDUIT    594.25     0  02:29      1.28    0.19    0.43
  WS02001213WS02003059 CONDUIT    296.26     0  07:01      0.59    0.49    0.72
  WS02001212WS02001213 CONDUIT    294.70     0  07:00      1.19    0.45    0.41
  WS02001211WS02001212 CONDUIT    293.96     0  07:00      0.67    0.22    0.58
  WS02003072WS02003073 CONDUIT    841.86     0  02:44      1.66    1.82    0.46
  WS02003069WS02003072 CONDUIT    842.02     0  02:43      1.57    0.41    0.48
  WS02003060WS02003069 CONDUIT    841.95     0  02:42      1.82    0.33    0.43
  WS02003059WS02003060 CONDUIT    298.53     0  07:01      0.82    0.19    0.62
  HS02004901HS02004770 CONDUIT     17.39     0  02:11      0.06    0.07    0.39
  HS02004876HS02004881 CONDUIT     59.04     0  02:14      0.84    0.63    0.10
  HS02004870HS02004876 CONDUIT     47.25     0  02:14      0.57    0.03    0.12
  HS02004842HS02004848 CONDUIT      7.81     0  02:26      0.04    0.00    0.29
  HS02004837HS02004842 CONDUIT      8.13     0  02:26      0.41    0.00    0.31
  HS02004830HS02004837 CONDUIT     33.94     0  02:14      0.51    0.03    0.09
  HS02004824HS02004830 CONDUIT     34.08     0  02:15      0.55    0.04    0.09
  HS02004817HS02004824 CONDUIT     58.32     0  02:17      0.19    0.03    0.44
  HS02004770HS02004777 CONDUIT     88.39     0  02:10      0.32    0.16    0.40
  HS02004799HS02004480 CONDUIT    217.08     0  02:12      0.76    0.27    0.41
  HS02004792HS02004799 CONDUIT    198.38     0  02:12      0.87    0.12    0.33
  HS02004788HS02004792 CONDUIT    115.25     0  02:12      1.00    0.08    0.17
  HS02004785HS02004788 CONDUIT     87.86     0  02:12      0.66    0.66    0.19
  HS02004777HS02004785 CONDUIT     87.82     0  02:11      0.38    0.11    0.33
  HS02004480HS02004478 CONDUIT    256.45     0  02:13      1.18    1.08    0.31
  HS02004479HS02004480 CONDUIT     40.30     0  02:14      0.15    0.04    0.39
  HS02004862HS02004870 CONDUIT     34.82     0  02:15      0.58    0.04    0.09
  HS02004848HS02004852 CONDUIT     14.89     0  02:14      0.39    0.02    0.05
  HS02004856HS02004862 CONDUIT     24.08     0  02:14      0.43    0.02    0.08
  HS02004852HS02004856 CONDUIT     14.84     0  02:15      0.19    0.02    0.11
  HS02004802HS02004478 CONDUIT     83.17     0  02:17      0.38    0.07    0.32
  HS02004478WS02006287 CONDUIT    336.52     0  02:14      1.61    0.09    0.23
  HS02004817HS02004807 CONDUIT     59.99     0  02:18      0.15    0.04    0.59
  HS02004807HS02004802 CONDUIT     82.40     0  02:16      0.32    0.16    0.37
  YS02001759YS02001757 CONDUIT    339.90     0  02:38      0.43    0.24    1.00
  YS02001762YS02001759 CONDUIT    183.79     0  02:38      0.23    0.21    1.00
  YS02001765YS02001762 CONDUIT    183.68     0  02:38      0.23    0.17    1.00
  YS02001770YS02001767 CONDUIT    185.51     0  02:30      0.34    0.73    1.00
  YS02001774YS02001770 CONDUIT     65.38     0  02:11      0.16    0.04    1.00
  YS02001779YS02001774 CONDUIT     48.34     0  02:24      0.10    0.02    1.00
  YS02001649YS02001757 CONDUIT    551.66     0  02:58      0.70    0.33    1.00
  YS02001767YS02001765 CONDUIT    183.29     0  02:38      0.26    0.23    1.00
  YS02006561YS02001783 CONDUIT    568.28     0  02:55      2.06    0.29    0.69
  YS02001783YS02001784 CONDUIT    569.98     0  02:55      1.50    0.79    1.00
  YS02001784YS02001785 CONDUIT    571.49     0  02:56      1.61    1.33    1.00
  YS02001788YS02001790 CONDUIT    577.18     0  02:56      2.15    0.43    1.00
  YS02001790YS02001791 CONDUIT    577.35     0  02:56      2.55    0.63    1.00
  YS02001791YS02001793 CONDUIT    668.02     0  02:49      5.21    0.29    1.00
  YS02001910YS02001907 CONDUIT    189.91     0  02:43      0.49    0.11    0.89
  YS02001786YS02001788 CONDUIT    570.15     0  02:56      2.08    1.10    1.00
  YS02001915YS02001910 CONDUIT    184.64     0  02:56      0.45    0.09    0.68
  YS02001918YS02001915 CONDUIT     63.77     0  02:44      0.44    0.04    0.40
  YS02001923YS02001920 CONDUIT     54.00     0  03:01      0.54    0.02    0.20
  YS02001926YS02001923 CONDUIT     53.96     0  03:01      0.61    0.08    0.17
  YS02001929YS02001926 CONDUIT     53.97     0  03:01      0.66    0.03    0.16
  YS02001920YS02001918 CONDUIT     60.26     0  02:56      0.55    0.06    0.26
  YS02001629YS02163301 CONDUIT    173.59     0  02:29      0.22    0.21    1.00
  YS02001619YS02001622 CONDUIT    157.85     0  03:07      0.77    0.23    1.00
  YS02001622YS02001625 CONDUIT    223.38     0  03:07      0.32    0.12    1.00
  YS02001625YS02001629 CONDUIT    223.08     0  03:07      0.32    0.11    1.00
  YS02163301YS02001633 CONDUIT    169.09     0  02:29      0.22    0.16    1.00
  YS02163601YS02164001 CONDUIT    271.72     0  02:29      0.35    0.24    1.00
  YS02164001YS02001641 CONDUIT    277.40     0  02:30      0.35    0.38    1.00
  YS02001641YS02001644 CONDUIT    282.40     0  02:29      0.36    0.91    1.00
  YS02001647YS02001649 CONDUIT    403.81     0  02:29      0.52    0.21    1.00
  YS02006553YS02006556 CONDUIT    397.92     0  02:49      0.51    0.34    0.97
  YS02006556YS02006558 CONDUIT    415.13     0  02:49      0.53    0.33    0.99
  YSB6556YSB1171       CONDUIT     21.80     0  02:15      0.08    0.02    0.66
  YS02001907YS02006553 CONDUIT    393.37     0  02:45      0.44    0.46    1.00
  YS02006558YS02006561 CONDUIT    599.66     0  02:42      2.96    1.33    0.69
  YS02001633YS02163601 CONDUIT    271.56     0  02:30      0.35    0.29    1.00
  YS02001644YS02001647 CONDUIT    398.35     0  02:29      0.52    0.23    1.00
  YS02001745YS02001748 CONDUIT    336.86     0  03:28      1.58    0.13    0.92
  YS02001748YS02001751 CONDUIT    352.25     0  03:02      1.23    0.18    1.00
  YS02001751YS02001754 CONDUIT    202.42     0  03:02      1.07    0.10    1.00
  YS02001754YS02001757 CONDUIT    206.45     0  03:01      0.33    0.08    1.00
  YS02001882YS02001884 CONDUIT      8.90     0  02:52      0.06    0.01    0.62
  YS02001884YS02001887 CONDUIT     17.98     0  02:04      0.07    0.02    0.71
  YS02001890YS02001895 CONDUIT    209.86     0  02:44      0.37    0.10    0.68
  YS02001895YS02001898 CONDUIT    212.78     0  02:46      0.53    0.37    0.54
  YS02001898YS02001901 CONDUIT    218.41     0  02:47      0.43    0.14    0.62
  YS02001901YS02001904 CONDUIT    224.97     0  02:48      0.40    0.35    0.67
  YS02001904YS02001907 CONDUIT    228.26     0  02:49      0.33    0.08    0.83
  YS02001887YS02001890 CONDUIT    211.57     0  02:47      0.33    0.36    0.76
  YS02001652YS02001649 CONDUIT    215.98     0  02:58      0.38    0.11    1.00
  YS02001655YS02001652 CONDUIT    219.67     0  02:27      1.14    0.11    1.00
  YS02001658YS02001655 CONDUIT    388.94     0  02:56      1.42    0.16    1.00
  YS02001661YS02001658 CONDUIT    459.36     0  03:29      1.65    0.18    0.99
  YS02001664YS02001661 CONDUIT    385.46     0  04:19      1.41    0.12    0.70
  YSB1154YSB6556       CONDUIT     21.33     0  02:12      0.19    0.04    0.55
  YSB1174YSB1171       CONDUIT     19.56     0  02:09      0.08    0.03    0.67
  YSB1171HS02004479    CONDUIT     39.94     0  02:14      0.54    0.03    0.52
  HS02004881HS02006253 CONDUIT     65.86     0  02:14      2.04    0.01    0.17
  YS02001793JiankangQianchi CONDUIT    985.53     0  02:48     14.74    0.08    1.00
  YS02001757CaochengTiaoxuchi CONDUIT    993.78     0  02:28      2.26    0.44    1.00
  WSF200WS02003060     CONDUIT    593.24     0  02:29      2.10    0.13    0.33
  1                    CONDUIT    843.32     0  02:44      3.18    0.29    0.37
  2                    CONDUIT     28.88     0  02:25      3.39    0.07    0.18
  3                    CONDUIT    507.38     0  02:20      9.82    0.81    0.69
  4                    CONDUIT      0.00     0  00:00      0.00    0.00    0.00
  CC-Pump-1            PUMP         0.00     0  00:00              0.00
  CC-Pump-2            PUMP       200.00     0  02:14              1.00
  JK-Pump-1            PUMP       299.98     0  02:20              1.00
  JK-Pump-2            PUMP       300.00     0  00:00              1.00
  XR-Pump-1            PUMP        95.00     0  00:40              1.00
  XR-Pump-2            PUMP         0.00     0  00:00              0.00
  XR-Pump-3            PUMP        95.00     0  00:00              1.00
  XR-Pump-4            PUMP        95.00     0  00:20              1.00
  
  
  ***************************
  Flow Classification Summary
  ***************************
  
  -------------------------------------------------------------------------------------
                      Adjusted    ---------- Fraction of Time in Flow Class ---------- 
                       /Actual         Up    Down  Sub   Sup   Up    Down  Norm  Inlet 
  Conduit               Length    Dry  Dry   Dry   Crit  Crit  Crit  Crit  Ltd   Ctrl  
  -------------------------------------------------------------------------------------
  WS02003066WSF200        1.00   0.06  0.00  0.00  0.00  0.94  0.00  0.00  0.68  0.00
  WS02006287WS02006284    1.00   0.04  0.01  0.00  0.67  0.28  0.00  0.00  0.76  0.00
  WS02006284WS02006280    1.00   0.05  0.00  0.00  0.00  0.00  0.00  0.95  0.00  0.00
  WS02006280WS02006229    1.00   0.05  0.00  0.00  0.00  0.00  0.00  0.95  0.00  0.00
  WS02006229WS02006228    1.00   0.00  0.00  0.00  0.99  0.00  0.00  0.01  0.00  0.00
  WS02006256WS02006235    1.00   0.00  0.00  0.00  1.00  0.00  0.00  0.00  0.00  0.00
  WS02006253WS02006251    1.00   0.03  0.01  0.00  0.96  0.00  0.00  0.00  0.00  0.00
  WS02006252WS02006251    1.00   0.08  0.00  0.00  0.00  0.00  0.92  0.00  0.00  0.00
  WS02006251WS02006249    1.00   0.00  0.00  0.00  1.00  0.00  0.00  0.00  0.25  0.00
  WS02006249WS02006248    1.00   0.00  0.02  0.00  0.92  0.00  0.06  0.00  0.00  0.00
  WS02006248WS02006247    1.00   0.02  0.00  0.00  0.98  0.00  0.00  0.00  0.14  0.00
  WS02006247WS02006245    1.00   0.02  0.00  0.00  0.98  0.00  0.00  0.00  0.00  0.00
  WS02006245WS02006243    1.00   0.01  0.00  0.00  0.94  0.00  0.00  0.04  0.01  0.00
  WS02006243WS02006242    1.00   0.01  0.00  0.00  0.99  0.00  0.00  0.00  0.25  0.00
  WS02006242WS02006240    1.00   0.00  0.00  0.00  1.00  0.00  0.00  0.00  0.00  0.00
  WS02006240WS02006239    1.00   0.00  0.00  0.00  0.96  0.00  0.00  0.04  0.01  0.00
  WS02006239WS02006238    1.00   0.00  0.00  0.00  1.00  0.00  0.00  0.00  0.01  0.00
  WS02006238WS02006235    1.00   0.00  0.00  0.00  1.00  0.00  0.00  0.00  0.00  0.00
  WS02006235WS02006234    1.00   0.00  0.00  0.00  0.95  0.00  0.05  0.00  0.00  0.00
  WS02006234WS02006232    1.00   0.00  0.00  0.00  1.00  0.00  0.00  0.00  0.06  0.00
  WS02006232WS02006231    1.00   0.00  0.00  0.00  0.99  0.00  0.00  0.00  0.00  0.00
  WS02006231WS02006230    1.00   0.00  0.00  0.00  0.46  0.00  0.54  0.00  0.00  0.00
  WS02006230WS02006229    1.00   0.00  0.00  0.00  0.98  0.00  0.00  0.02  0.01  0.00
  WS02006228WS02006109    1.00   0.00  0.00  0.00  1.00  0.00  0.00  0.00  0.00  0.00
  WS02006116WS02004401    1.00   0.03  0.00  0.00  0.97  0.00  0.00  0.00  0.00  0.00
  WS02006115WS02006116    1.00   0.03  0.00  0.00  0.97  0.00  0.00  0.01  0.00  0.00
  WS02006113WS02006111    1.00   0.02  0.00  0.00  0.00  0.98  0.00  0.00  0.11  0.00
  WS02006112WS02006115    1.00   0.02  0.00  0.00  0.97  0.00  0.00  0.00  0.00  0.00
  WS02006111WS02006112    1.00   0.02  0.00  0.00  0.97  0.00  0.00  0.00  0.98  0.00
  WS02006110WS02006113    1.00   0.01  0.01  0.00  0.98  0.00  0.00  0.00  0.00  0.00
  WS02006109WS02006110    1.00   0.00  0.01  0.00  0.98  0.00  0.01  0.00  0.00  0.00
  WS02004411WS02004412    1.00   0.04  0.00  0.00  0.96  0.00  0.00  0.00  0.00  0.00
  WS02004401WS02004402    1.00   0.03  0.00  0.00  0.97  0.00  0.00  0.00  0.00  0.00
  WS02004413WS02003067    1.00   0.04  0.01  0.00  0.00  0.00  0.95  0.00  0.00  0.00
  WS02004412WS02004413    1.00   0.04  0.00  0.00  0.96  0.00  0.00  0.00  0.03  0.00
  WS02004410WS02004411    1.00   0.04  0.00  0.00  0.96  0.00  0.00  0.00  0.03  0.00
  WS02004409WS02004410    1.00   0.04  0.00  0.00  0.96  0.00  0.00  0.00  0.04  0.00
  WS02004407WS02004409    1.00   0.04  0.00  0.00  0.96  0.00  0.00  0.00  0.89  0.00
  WS02004406WS02004407    1.00   0.00  0.04  0.00  0.96  0.00  0.00  0.00  0.00  0.00
  WS02004405WS02004406    1.00   0.00  0.00  0.00  1.00  0.00  0.00  0.00  0.01  0.00
  WS02004404WS02004405    1.00   0.00  0.00  0.00  1.00  0.00  0.00  0.00  0.00  0.00
  WS02004403WS02004404    1.00   0.00  0.03  0.00  0.97  0.00  0.00  0.00  0.01  0.00
  WS02004402WS02004403    1.00   0.03  0.00  0.00  0.97  0.00  0.00  0.00  0.00  0.00
  WS02004139WS02001211    1.00   0.00  0.00  0.00  0.99  0.00  0.01  0.00  0.00  0.00
  WS02004138WS02004139    1.00   0.00  0.00  0.00  0.99  0.01  0.00  0.00  1.00  0.00
  WS02003067WS02003066    1.00   0.05  0.00  0.00  0.94  0.00  0.00  0.00  0.00  0.00
  WS02001213WS02003059    1.00   0.00  0.01  0.00  0.99  0.00  0.00  0.00  0.00  0.00
  WS02001212WS02001213    1.00   0.01  0.00  0.00  0.90  0.00  0.09  0.00  0.00  0.00
  WS02001211WS02001212    1.00   0.00  0.01  0.00  0.99  0.00  0.00  0.00  0.00  0.00
  WS02003072WS02003073    1.00   0.00  0.00  0.00  0.00  0.00  0.00  1.00  0.00  0.00
  WS02003069WS02003072    1.00   0.00  0.00  0.00  0.99  0.01  0.00  0.00  0.27  0.00
  WS02003060WS02003069    1.00   0.00  0.00  0.00  0.99  0.01  0.00  0.00  0.15  0.00
  WS02003059WS02003060    1.00   0.00  0.00  0.00  1.00  0.00  0.00  0.00  0.02  0.00
  HS02004901HS02004770    1.00   0.04  0.00  0.00  0.96  0.00  0.00  0.00  0.02  0.00
  HS02004876HS02004881    1.00   0.02  0.00  0.00  0.95  0.03  0.00  0.00  0.00  0.00
  HS02004870HS02004876    1.00   0.01  0.00  0.00  0.99  0.00  0.00  0.00  0.95  0.00
  HS02004842HS02004848    1.00   0.00  0.05  0.00  0.95  0.00  0.00  0.00  0.67  0.00
  HS02004837HS02004842    1.00   0.00  0.00  0.00  0.99  0.01  0.00  0.00  0.11  0.00
  HS02004830HS02004837    1.00   0.00  0.00  0.00  1.00  0.00  0.00  0.00  0.99  0.00
  HS02004824HS02004830    1.00   0.00  0.00  0.00  1.00  0.00  0.00  0.00  0.00  0.00
  HS02004817HS02004824    1.00   0.00  0.00  0.00  1.00  0.00  0.00  0.00  1.00  0.00
  HS02004770HS02004777    1.00   0.00  0.04  0.00  0.96  0.00  0.00  0.00  0.07  0.00
  HS02004799HS02004480    1.00   0.00  0.02  0.00  0.94  0.00  0.03  0.00  0.00  0.00
  HS02004792HS02004799    1.00   0.00  0.00  0.00  0.99  0.01  0.00  0.00  0.98  0.00
  HS02004788HS02004792    1.00   0.00  0.00  0.00  0.99  0.01  0.00  0.00  0.98  0.00
  HS02004785HS02004788    1.00   0.00  0.00  0.00  1.00  0.00  0.00  0.00  0.00  0.00
  HS02004777HS02004785    1.00   0.00  0.00  0.00  1.00  0.00  0.00  0.00  0.20  0.00
  HS02004480HS02004478    1.00   0.05  0.00  0.00  0.72  0.00  0.00  0.23  0.00  0.00
  HS02004479HS02004480    1.00   0.03  0.00  0.00  0.97  0.00  0.00  0.00  0.16  0.00
  HS02004862HS02004870    1.00   0.00  0.00  0.00  1.00  0.00  0.00  0.00  0.05  0.00
  HS02004848HS02004852    1.00   0.05  0.00  0.00  0.95  0.00  0.00  0.00  0.72  0.00
  HS02004856HS02004862    1.00   0.00  0.07  0.00  0.93  0.00  0.00  0.00  0.75  0.00
  HS02004852HS02004856    1.00   0.04  0.01  0.00  0.95  0.00  0.00  0.00  0.83  0.00
  HS02004802HS02004478    1.00   0.05  0.00  0.00  0.95  0.00  0.00  0.00  0.01  0.00
  HS02004478WS02006287    1.00   0.05  0.00  0.00  0.82  0.12  0.00  0.00  0.73  0.00
  HS02004817HS02004807    1.00   0.00  0.05  0.00  0.95  0.00  0.00  0.00  0.00  0.00
  HS02004807HS02004802    1.00   0.05  0.00  0.00  0.95  0.00  0.00  0.00  0.01  0.00
  YS02001759YS02001757    1.00   0.00  0.00  0.00  1.00  0.00  0.00  0.00  0.17  0.00
  YS02001762YS02001759    1.00   0.00  0.00  0.00  1.00  0.00  0.00  0.00  0.04  0.00
  YS02001765YS02001762    1.00   0.00  0.00  0.00  1.00  0.00  0.00  0.00  0.22  0.00
  YS02001770YS02001767    1.00   0.00  0.00  0.00  1.00  0.00  0.00  0.00  0.00  0.00
  YS02001774YS02001770    1.00   0.00  0.05  0.00  0.95  0.00  0.00  0.00  0.06  0.00
  YS02001779YS02001774    1.00   0.00  0.00  0.00  1.00  0.00  0.00  0.00  0.26  0.00
  YS02001649YS02001757    1.00   0.00  0.00  0.00  1.00  0.00  0.00  0.00  0.19  0.00
  YS02001767YS02001765    1.00   0.00  0.00  0.00  1.00  0.00  0.00  0.00  0.01  0.00
  YS02006561YS02001783    1.00   0.07  0.00  0.00  0.18  0.75  0.00  0.00  0.64  0.00
  YS02001783YS02001784    1.00   0.00  0.07  0.00  0.93  0.00  0.00  0.00  0.00  0.00
  YS02001784YS02001785    1.00   0.00  0.00  0.00  1.00  0.00  0.00  0.00  0.25  0.00
  YS02001788YS02001790    1.00   0.00  0.00  0.00  0.33  0.67  0.00  0.00  0.69  0.00
  YS02001790YS02001791    1.00   0.00  0.00  0.00  0.29  0.71  0.00  0.00  0.45  0.00
  YS02001791YS02001793    1.00   0.00  0.00  0.00  0.29  0.71  0.00  0.00  0.01  0.00
  YS02001910YS02001907    1.00   0.00  0.00  0.00  0.97  0.00  0.00  0.02  0.13  0.00
  YS02001786YS02001788    1.00   0.00  0.00  0.00  0.28  0.72  0.00  0.00  0.00  0.00
  YS02001915YS02001910    1.00   0.00  0.00  0.00  0.99  0.01  0.00  0.00  0.23  0.00
  YS02001918YS02001915    1.00   0.00  0.01  0.00  0.98  0.01  0.00  0.00  0.66  0.00
  YS02001923YS02001920    1.00   0.00  0.00  0.00  1.00  0.00  0.00  0.00  1.00  0.00
  YS02001926YS02001923    1.00   0.00  0.03  0.00  0.00  0.00  0.97  0.00  0.00  0.00
  YS02001929YS02001926    1.00   0.00  0.04  0.00  0.96  0.00  0.00  0.00  0.87  0.00
  YS02001920YS02001918    1.00   0.00  0.01  0.00  0.99  0.00  0.00  0.00  0.00  0.00
  YS02001629YS02163301    1.00   0.06  0.00  0.00  0.94  0.00  0.00  0.00  0.00  0.00
  YS02001619YS02001622    1.00   0.04  0.00  0.00  0.96  0.00  0.00  0.00  0.00  0.00
  YS02001622YS02001625    1.00   0.05  0.00  0.00  0.95  0.00  0.00  0.00  0.12  0.00
  YS02001625YS02001629    1.00   0.05  0.02  0.00  0.92  0.00  0.01  0.00  0.00  0.00
  YS02163301YS02001633    1.00   0.00  0.06  0.00  0.94  0.00  0.00  0.00  0.00  0.00
  YS02163601YS02164001    1.00   0.00  0.04  0.00  0.96  0.00  0.00  0.00  0.00  0.00
  YS02164001YS02001641    1.00   0.01  0.03  0.00  0.96  0.00  0.00  0.00  0.07  0.00
  YS02001641YS02001644    1.00   0.00  0.01  0.00  0.99  0.00  0.00  0.00  0.00  0.00
  YS02001647YS02001649    1.00   0.00  0.07  0.00  0.93  0.00  0.00  0.00  0.01  0.00
  YS02006553YS02006556    1.00   0.01  0.00  0.00  0.99  0.00  0.00  0.00  0.03  0.00
  YS02006556YS02006558    1.00   0.00  0.00  0.00  1.00  0.00  0.00  0.00  0.00  0.00
  YSB6556YSB1171          1.00   0.03  0.01  0.00  0.96  0.00  0.00  0.00  0.00  0.00
  YS02001907YS02006553    1.00   0.00  0.02  0.00  0.98  0.00  0.00  0.00  0.00  0.00
  YS02006558YS02006561    1.00   0.07  0.00  0.00  0.00  0.93  0.00  0.00  0.58  0.00
  YS02001633YS02163601    1.00   0.00  0.01  0.00  0.99  0.00  0.00  0.00  0.19  0.00
  YS02001644YS02001647    1.00   0.00  0.07  0.00  0.93  0.00  0.00  0.00  0.00  0.00
  YS02001745YS02001748    1.00   0.00  0.00  0.00  0.89  0.01  0.00  0.10  0.05  0.00
  YS02001748YS02001751    1.00   0.00  0.00  0.00  0.98  0.02  0.00  0.00  0.23  0.00
  YS02001751YS02001754    1.00   0.00  0.00  0.00  0.93  0.00  0.00  0.07  0.01  0.00
  YS02001754YS02001757    1.00   0.00  0.00  0.00  0.99  0.01  0.00  0.00  0.26  0.00
  YS02001882YS02001884    1.00   0.06  0.00  0.00  0.94  0.00  0.00  0.00  0.00  0.00
  YS02001884YS02001887    1.00   0.03  0.01  0.00  0.96  0.00  0.00  0.00  0.00  0.00
  YS02001890YS02001895    1.00   0.00  0.06  0.00  0.94  0.00  0.00  0.00  0.00  0.00
  YS02001895YS02001898    1.00   0.06  0.00  0.00  0.93  0.00  0.01  0.00  0.00  0.00
  YS02001898YS02001901    1.00   0.06  0.00  0.00  0.94  0.00  0.00  0.00  0.02  0.00
  YS02001901YS02001904    1.00   0.06  0.00  0.00  0.94  0.00  0.00  0.00  0.00  0.00
  YS02001904YS02001907    1.00   0.00  0.06  0.00  0.94  0.00  0.00  0.00  0.00  0.00
  YS02001887YS02001890    1.00   0.00  0.00  0.00  0.97  0.00  0.02  0.00  0.00  0.00
  YS02001652YS02001649    1.00   0.00  0.00  0.00  1.00  0.00  0.00  0.00  0.25  0.00
  YS02001655YS02001652    1.00   0.00  0.00  0.00  0.93  0.00  0.00  0.07  0.01  0.00
  YS02001658YS02001655    1.00   0.00  0.05  0.00  0.92  0.02  0.00  0.00  0.07  0.00
  YS02001661YS02001658    1.00   0.05  0.00  0.00  0.89  0.05  0.00  0.00  0.05  0.00
  YS02001664YS02001661    1.00   0.04  0.00  0.00  0.84  0.11  0.00  0.00  0.32  0.00
  YSB1154YSB6556          1.00   0.04  0.00  0.00  0.96  0.00  0.00  0.00  0.02  0.00
  YSB1174YSB1171          1.00   0.03  0.01  0.00  0.96  0.00  0.00  0.00  0.00  0.00
  YSB1171HS02004479       1.00   0.03  0.00  0.00  0.97  0.00  0.00  0.00  0.13  0.00
  HS02004881HS02006253    1.00   0.03  0.00  0.00  0.89  0.01  0.00  0.08  0.69  0.00
  YS02001793JiankangQianchi    1.00   0.00  0.00  0.00  0.41  0.59  0.00  0.00  0.10  0.00
  YS02001757CaochengTiaoxuchi    1.00   0.00  0.08  0.00  0.91  0.01  0.00  0.00  0.00  0.00
  WSF200WS02003060        1.00   0.00  0.06  0.00  0.65  0.29  0.00  0.00  0.13  0.00
  1                       1.00   0.00  0.00  0.00  0.00  1.00  0.00  0.00  0.42  0.00
  2                       1.00   0.93  0.00  0.00  0.00  0.07  0.00  0.00  0.02  0.00
  3                       1.00   0.20  0.00  0.00  0.00  0.80  0.00  0.00  0.27  0.00
  4                       1.00   1.00  0.00  0.00  0.00  0.00  0.00  0.00  0.00  0.00
  
  
  *************************
  Conduit Surcharge Summary
  *************************
  
  ----------------------------------------------------------------------------
                                                           Hours        Hours 
                         --------- Hours Full --------   Above Full   Capacity
  Conduit                Both Ends  Upstream  Dnstream   Normal Flow   Limited
  ----------------------------------------------------------------------------
  WS02006229WS02006228        1.08      1.13      1.08      4.72         1.08
  WS02006256WS02006235        5.78      5.78      7.36      4.04         0.01
  WS02006249WS02006248        0.01      0.01      0.01      5.29         0.01
  WS02006247WS02006245        0.01      0.01      0.01      5.39         0.01
  WS02006243WS02006242        0.01      0.01      0.31      0.01         0.01
  WS02006242WS02006240        0.15      0.15      0.44      0.01         0.01
  WS02006240WS02006239        0.20      0.20      0.30      0.01         0.01
  WS02006239WS02006238        0.49      0.49      0.56      0.01         0.01
  WS02006238WS02006235        0.54      0.54      0.62      0.01         0.01
  WS02006235WS02006234        0.34      0.34      0.50      5.80         0.01
  WS02006234WS02006232        0.44      0.44      0.68      0.01         0.01
  WS02006232WS02006231        0.16      0.16      0.68      0.01         0.01
  WS02006231WS02006230        0.05      0.05      0.20      5.79         0.01
  WS02006230WS02006229        1.47      4.06      1.47      5.87         1.46
  WS02006228WS02006109        1.10      1.37      1.10      5.54         1.10
  WS02006112WS02006115        0.01      0.01      0.58      0.01         0.01
  WS02006111WS02006112        0.01      0.01      5.30      0.01         0.01
  WS02006110WS02006113        0.01      0.01      1.22      0.01         0.01
  WS02006109WS02006110        0.39      0.39      1.37      0.39         0.01
  WS02004405WS02004406        0.01      0.01      0.01      0.49         0.01
  WS02004404WS02004405        0.01      0.08      0.01      5.69         0.01
  WS02004403WS02004404        0.01      0.01      0.08      0.01         0.01
  WS02003072WS02003073        0.01      0.01      0.01      5.43         0.01
  HS02004480HS02004478        0.01      0.01      0.01      0.15         0.01
  YS02001759YS02001757        5.49      5.49      5.53      0.01         0.01
  YS02001762YS02001759        5.48      5.48      5.49      0.01         0.01
  YS02001765YS02001762        5.46      5.46      5.48      0.01         0.01
  YS02001770YS02001767        5.38      5.40      5.41      0.01         0.56
  YS02001774YS02001770        5.34      5.34      5.47      0.01         0.01
  YS02001779YS02001774        5.10      5.10      5.47      0.01         0.01
  YS02001649YS02001757        5.48      5.48      5.53      0.01         0.01
  YS02001767YS02001765        5.41      5.41      5.46      0.01         0.01
  YS02006561YS02001783        0.01      0.01      0.01      0.01         0.01
  YS02001783YS02001784        0.01      0.01      0.02      0.01         0.01
  YS02001784YS02001785        0.01      0.02      0.01      0.97         0.01
  YS02001788YS02001790        0.01      0.01      1.15      0.01         0.01
  YS02001790YS02001791        1.15      1.15      1.32      0.01         0.01
  YS02001791YS02001793        1.32      1.32      1.71      0.01         0.01
  YS02001786YS02001788        0.01      0.01      0.01      0.42         0.01
  YS02001629YS02163301        5.35      5.35      5.39      0.01         0.01
  YS02001619YS02001622        4.42      4.42      4.51      0.01         0.02
  YS02001622YS02001625        4.51      4.51      5.26      0.01         0.01
  YS02001625YS02001629        4.44      4.44      5.26      0.01         0.01
  YS02163301YS02001633        5.39      5.39      5.46      0.01         0.01
  YS02163601YS02164001        5.45      5.45      5.47      0.01         0.01
  YS02164001YS02001641        5.45      5.45      5.46      0.01         0.02
  YS02001641YS02001644        5.46      5.46      5.46      0.01         0.69
  YS02001647YS02001649        5.24      5.24      5.48      0.01         0.01
  YS02006553YS02006556        0.01      0.01      0.04      0.01         0.01
  YS02006556YS02006558        0.01      0.01      0.23      0.01         0.01
  YS02001907YS02006553        0.99      0.99      1.19      0.01         0.01
  YS02006558YS02006561        0.01      0.01      0.01      0.82         0.01
  YS02001633YS02163601        5.44      5.44      5.47      0.01         0.01
  YS02001644YS02001647        5.24      5.24      5.46      0.01         0.01
  YS02001745YS02001748        0.01      0.01      3.94      0.01         0.01
  YS02001748YS02001751        4.13      4.13      4.51      0.01         0.01
  YS02001751YS02001754        4.51      4.51      5.18      0.01         0.01
  YS02001754YS02001757        5.25      5.25      5.53      0.01         0.01
  YS02001904YS02001907        0.01      0.01      0.02      0.01         0.01
  YS02001652YS02001649        5.25      5.25      5.48      0.01         0.01
  YS02001655YS02001652        4.59      4.59      5.23      0.01         0.01
  YS02001658YS02001655        3.93      3.93      4.59      0.01         0.01
  YS02001661YS02001658        0.01      0.01      3.93      0.01         0.01
  YS02001664YS02001661        0.01      0.01      0.42      0.01         0.01
  YS02001793JiankangQianchi        1.65      1.65      2.32      0.01         0.01
  YS02001757CaochengTiaoxuchi        4.19      4.19      5.53      0.01         0.01
  
  
  ***************
  Pumping Summary
  ***************
  
  ---------------------------------------------------------------------------------------------------------
                                                  Min       Avg       Max     Total     Power    % Time Off
                        Percent   Number of      Flow      Flow      Flow    Volume     Usage    Pump Curve
  Pump                 Utilized   Start-Ups       LPS       LPS       LPS  10^6 ltr     Kw-hr    Low   High
  ---------------------------------------------------------------------------------------------------------
  CC-Pump-1                0.00           0      0.00      0.00      0.00     0.000      0.00    0.0    0.0
  CC-Pump-2               72.17           1      0.00    195.27    200.00     3.926      5.37    0.0    9.4
  JK-Pump-1               48.93           8      0.00    117.18    299.98     1.077     17.20    0.0    0.0
  JK-Pump-2              100.00           2      0.00    179.30    300.00     3.906     48.65    0.0    0.0
  XR-Pump-1               74.45           9      0.00     61.20     95.00     1.282      8.16    0.0    0.0
  XR-Pump-2                0.00           0      0.00      0.00      0.00     0.000      0.00    0.0    0.0
  XR-Pump-3               97.87           2      0.00     89.96     95.00     2.451     15.78    0.0    0.0
  XR-Pump-4               91.48           4      0.00     77.87     95.00     2.052     13.71    0.0    0.0
  

  Analysis begun on:  Wed Jan  5 21:56:56 2022
  Analysis ended on:  Wed Jan  5 21:56:59 2022
  Total elapsed time: 00:00:03