
  EPA STORM WATER MANAGEMENT MODEL - VERSION 5.1 (Build 5.3.0.dev0)
  --------------------------------------------------------------

  WARNING 04: minimum elevation drop used for Conduit WS02004404WS02004405
  WARNING 03: negative offset ignored for Link YS02001904YS02001907
  
  *********************************************************
  NOTE: The summary statistics displayed in this report are
  based on results found at every computational time step,  
  not just on results from each reporting time step.
  *********************************************************
  
  ****************
  Analysis Options
  ****************
  Flow Units ............... LPS
  Process Models:
    Rainfall/Runoff ........ YES
    RDII ................... NO
    Snowmelt ............... NO
    Groundwater ............ NO
    Flow Routing ........... YES
    Ponding Allowed ........ NO
    Water Quality .......... NO
  Infiltration Method ...... HORTON
  Flow Routing Method ...... DYNWAVE
  Surcharge Method ......... EXTRAN
  Starting Date ............ 08/28/2015 08:00:00
  Ending Date .............. 08/28/2015 15:50:00
  Antecedent Dry Days ...... 8.0
  Report Time Step ......... 00:01:00
  Wet Time Step ............ 00:01:00
  Dry Time Step ............ 00:01:00
  Routing Time Step ........ 5.00 sec
  Variable Time Step ....... YES
  Maximum Trials ........... 8
  Number of Threads ........ 4
  Head Tolerance ........... 0.001500 m
  
  
  **************************        Volume         Depth
  Runoff Quantity Continuity     hectare-m            mm
  **************************     ---------       -------
  Total Precipitation ......         2.455         5.375
  Evaporation Loss .........         0.000         0.000
  Infiltration Loss ........         0.614         1.344
  Surface Runoff ...........         0.980         2.145
  Final Storage ............         0.862         1.887
  Continuity Error (%) .....        -0.018
  
  
  **************************        Volume        Volume
  Flow Routing Continuity        hectare-m      10^6 ltr
  **************************     ---------     ---------
  Dry Weather Inflow .......         0.616         6.165
  Wet Weather Inflow .......         0.979         9.790
  Groundwater Inflow .......         0.000         0.000
  RDII Inflow ..............         0.000         0.000
  External Inflow ..........         0.102         1.024
  External Outflow .........         1.587        15.870
  Flooding Loss ............         0.000         0.000
  Evaporation Loss .........         0.000         0.000
  Exfiltration Loss ........         0.000         0.000
  Initial Stored Volume ....         0.076         0.761
  Final Stored Volume ......         0.299         2.995
  Continuity Error (%) .....        -6.347
  
  
  *************************
  Highest Continuity Errors
  *************************
  Node JK-storage (-37.33%)
  Node HS02004842 (30.51%)
  Node YS02001884 (24.93%)
  Node YS02001774 (7.79%)
  Node YSB1171 (7.78%)
  
  
  ***************************
  Time-Step Critical Elements
  ***************************
  Link WS02006252WS02006251 (72.50%)
  Link 3 (22.02%)
  Link WS02006280WS02006229 (1.84%)
  
  
  ********************************
  Highest Flow Instability Indexes
  ********************************
  Link WS02006113WS02006111 (41)
  Link WS02006111WS02006112 (30)
  Link YS02001641YS02001644 (3)
  Link YS02164001YS02001641 (3)
  Link YS02001765YS02001762 (3)
  
  
  *************************
  Routing Time Step Summary
  *************************
  Minimum Time Step           :     0.50 sec
  Average Time Step           :     0.87 sec
  Maximum Time Step           :     5.00 sec
  Percent in Steady State     :    -0.00
  Average Iterations per Step :     2.13
  Percent Not Converging      :     1.54
  
  
  ***************************
  Subcatchment Runoff Summary
  ***************************
  
  ------------------------------------------------------------------------------------------------------------------------------
                            Total      Total      Total      Total     Imperv       Perv      Total       Total     Peak  Runoff
                           Precip      Runon       Evap      Infil     Runoff     Runoff     Runoff      Runoff   Runoff   Coeff
  Subcatchment                 mm         mm         mm         mm         mm         mm         mm    10^6 ltr      LPS
  ------------------------------------------------------------------------------------------------------------------------------
  sub0                       5.37       0.00       0.00       0.38       3.73       0.00       3.73        0.00     1.27   0.695
  sub1                       5.37       0.00       0.00       0.59       3.53       0.00       3.53        0.02     6.53   0.657
  sub2                       5.37       0.00       0.00       1.99       2.48       0.00       2.48        0.02     5.75   0.462
  sub3                       5.37       0.00       0.00       1.99       2.45       0.00       2.45        0.06    11.75   0.455
  sub4                       5.37       0.00       0.00       0.59       3.39       0.00       3.39        0.07    13.11   0.632
  sub5                       5.37       0.00       0.00       0.38       3.69       0.00       3.69        0.04    11.61   0.686
  sub7                       5.37       0.00       0.00       0.48       3.64       0.00       3.64        0.01     4.14   0.677
  sub8                       5.37       0.00       0.00       0.48       3.63       0.00       3.63        0.02     7.27   0.675
  sub9                       5.37       0.00       0.00       0.48       3.63       0.00       3.63        0.02     5.38   0.675
  sub10                      5.37       0.00       0.00       0.43       3.65       0.00       3.65        0.04    11.61   0.680
  sub11                      5.37       0.00       0.00       0.43       3.67       0.00       3.67        0.04    13.69   0.683
  sub12                      5.37       0.00       0.00       0.70       3.49       0.00       3.49        0.03    11.71   0.649
  sub14                      5.37       0.00       0.00       0.48       3.62       0.00       3.62        0.03    10.51   0.674
  sub15                      5.37       0.00       0.00       1.61       2.78       0.00       2.78        0.05    14.25   0.518
  sub16                      5.37       0.00       0.00       1.77       2.68       0.00       2.68        0.03    10.26   0.499
  sub17                      5.37       0.00       0.00       1.72       2.72       0.00       2.72        0.02     8.28   0.506
  sub22                      5.37       0.00       0.00       2.31       2.28       0.00       2.28        0.14    46.88   0.423
  sub23                      5.37       0.00       0.00       1.99       2.52       0.00       2.52        0.12    39.98   0.468
  sub60                      5.37       0.00       0.00       0.64       2.37       0.00       2.37        0.72    64.64   0.442
  sub61                      5.37       0.00       0.00       0.91       2.56       0.00       2.56        0.79    81.69   0.477
  sub62                      5.37       0.00       0.00       0.43       2.74       0.00       2.74        0.84    83.30   0.510
  sub63                      5.37       0.00       0.00       1.56       2.29       0.00       2.29        0.69    76.49   0.426
  sub64                      5.37       0.00       0.00       0.81       2.27       0.00       2.27        0.69    61.36   0.422
  sub65                      5.37       0.00       0.00       0.70       2.29       0.00       2.29        0.71    62.22   0.427
  sub66                      5.37       0.00       0.00       1.56       1.98       0.00       1.98        0.61    56.37   0.369
  sub67                      5.37       0.00       0.00       0.43       3.04       0.00       3.04        0.94   107.71   0.565
  sub68                      5.37       0.00       0.00       0.75       2.73       0.00       2.73        0.84    90.50   0.508
  sub69                      5.37       0.00       0.00       0.81       2.97       0.00       2.97        0.69    90.66   0.553
  sub70                      5.37       3.03       0.00       2.86       3.59       0.00       3.59        0.82    70.94   0.427
  sub71                      5.37       0.00       0.00       0.43       2.61       0.00       2.61        0.62    57.99   0.486
  sub72                      5.37       0.00       0.00       0.38       1.81       0.00       1.81        0.37    26.99   0.337
  sub73                      5.37       3.49       0.00       3.01       3.60       0.00       3.60        0.85    60.66   0.406
  sub74                      5.37       0.00       0.00       4.03       0.90       0.00       0.90        0.36    50.75   0.167
  
  
  ******************
  Node Depth Summary
  ******************
  
  ---------------------------------------------------------------------------------
                                 Average  Maximum  Maximum  Time of Max    Reported
                                   Depth    Depth      HGL   Occurrence   Max Depth
  Node                 Type       Meters   Meters   Meters  days hr:min      Meters
  ---------------------------------------------------------------------------------
  WS02001211           JUNCTION     0.65     0.71     5.55     0  03:09        0.71
  WS02001212           JUNCTION     0.38     0.43     5.49     0  03:08        0.43
  WS02001213           JUNCTION     0.61     0.68     5.44     0  03:07        0.68
  WS02003069           JUNCTION     0.43     0.51     5.10     0  02:44        0.51
  WS02003072           JUNCTION     0.49     0.58     4.95     0  02:44        0.58
  WS02003073           JUNCTION     0.30     0.35     4.41     0  02:45        0.35
  WS02003060           JUNCTION     0.38     0.45     5.39     0  02:43        0.45
  WS02003066           JUNCTION     0.23     0.28     5.83     0  02:44        0.28
  WS02003059           JUNCTION     0.67     0.74     5.42     0  03:07        0.74
  WS02003067           JUNCTION     0.57     0.67     5.99     0  02:44        0.67
  WS02004401           JUNCTION     0.66     0.79     6.79     0  02:40        0.79
  WS02004402           JUNCTION     0.69     0.82     6.78     0  02:40        0.82
  WS02004403           JUNCTION     0.71     0.84     6.77     0  02:40        0.84
  WS02004404           JUNCTION     0.79     0.92     6.77     0  02:40        0.92
  WS02004406           JUNCTION     0.80     0.92     6.75     0  02:41        0.92
  WS02004409           JUNCTION     0.48     0.61     6.38     0  02:43        0.61
  WS02004410           JUNCTION     0.50     0.63     6.35     0  02:44        0.63
  WS02004411           JUNCTION     0.51     0.64     6.32     0  02:44        0.64
  WS02004412           JUNCTION     0.53     0.65     6.29     0  02:44        0.65
  WS02004413           JUNCTION     0.69     0.82     6.29     0  02:44        0.82
  WS02004405           JUNCTION     0.78     0.91     6.76     0  02:40        0.91
  WS02006109           JUNCTION     0.73     0.89     7.51     0  02:36        0.89
  WS02006110           JUNCTION     0.73     0.87     7.45     0  02:36        0.86
  WS02006111           JUNCTION     0.21     0.27     6.97     0  02:37        0.27
  WS02006112           JUNCTION     0.82     0.98     6.86     0  02:40        0.98
  WS02006113           JUNCTION     0.33     0.42     7.31     0  02:36        0.42
  WS02006115           JUNCTION     0.55     0.69     6.83     0  02:40        0.69
  WS02006116           JUNCTION     0.63     0.77     6.81     0  02:40        0.77
  WS02006230           JUNCTION     0.69     0.90     7.64     0  02:37        0.90
  WS02006231           JUNCTION     0.46     0.58     7.70     0  02:38        0.58
  WS02006232           JUNCTION     0.60     0.71     7.75     0  02:39        0.71
  WS02006234           JUNCTION     0.51     0.63     7.79     0  02:40        0.63
  WS02006235           JUNCTION     0.54     0.66     7.82     0  02:40        0.66
  WS02006238           JUNCTION     0.57     0.68     7.83     0  02:40        0.68
  WS02006240           JUNCTION     0.46     0.57     7.86     0  02:41        0.57
  WS02006242           JUNCTION     0.51     0.62     7.89     0  02:41        0.62
  WS02006243           JUNCTION     0.39     0.50     7.92     0  02:41        0.50
  WS02006245           JUNCTION     0.37     0.46     7.95     0  02:41        0.46
  WS02006247           JUNCTION     0.39     0.48     7.98     0  02:41        0.48
  WS02006248           JUNCTION     0.34     0.42     8.00     0  02:41        0.42
  WS02006249           JUNCTION     0.38     0.45     8.05     0  02:40        0.45
  WS02006239           JUNCTION     0.52     0.64     7.84     0  02:41        0.64
  WS02006251           JUNCTION     0.37     0.43     8.10     0  02:39        0.43
  WS02006252           JUNCTION     0.32     0.35     8.59     0  02:25        0.35
  WS02006253           JUNCTION     0.39     0.46     8.10     0  02:39        0.46
  WS02006256           JUNCTION     1.01     1.19     8.13     0  02:59        1.19
  WS02004138           JUNCTION     0.15     0.17     7.42     0  00:00        0.17
  WS02004407           JUNCTION     0.22     0.27     6.59     0  02:41        0.27
  WS02006228           JUNCTION     0.73     0.91     7.56     0  02:36        0.91
  WS02006229           JUNCTION     0.70     0.90     7.59     0  02:36        0.90
  WS02006280           JUNCTION     0.05     0.14     8.41     0  02:19        0.14
  WS02006284           JUNCTION     0.34     0.47     8.87     0  02:19        0.47
  WS02006287           JUNCTION     0.07     0.20     9.15     0  02:19        0.20
  WSF200               JUNCTION     0.21     0.28     5.52     0  02:49        0.28
  HS02004901           JUNCTION     0.11     0.22    10.04     0  02:17        0.22
  HS02004881           JUNCTION     0.01     0.02     9.05     0  02:18        0.02
  HS02004876           JUNCTION     0.03     0.10     9.13     0  02:17        0.10
  HS02004870           JUNCTION     0.01     0.04     9.32     0  02:19        0.04
  HS02004862           JUNCTION     0.01     0.04     9.43     0  02:20        0.04
  HS02004856           JUNCTION     0.07     0.10     9.53     0  02:19        0.10
  HS02004852           JUNCTION     0.01     0.02     9.54     0  02:20        0.02
  HS02004848           JUNCTION     0.01     0.02     9.63     0  02:18        0.02
  HS02004842           JUNCTION     0.33     0.36     9.63     0  02:18        0.36
  HS02004837           JUNCTION     0.03     0.05     9.63     0  02:18        0.05
  HS02004830           JUNCTION     0.04     0.06     9.53     0  02:18        0.06
  HS02004824           JUNCTION     0.02     0.04     9.44     0  02:22        0.04
  HS02004817           JUNCTION     0.42     0.51     9.36     0  02:19        0.51
  HS02004807           JUNCTION     0.11     0.19     9.36     0  02:19        0.19
  HS02004802           JUNCTION     0.15     0.23     9.36     0  02:19        0.23
  HS02004799           JUNCTION     0.09     0.24     9.45     0  02:17        0.24
  HS02004792           JUNCTION     0.02     0.09     9.61     0  02:16        0.09
  HS02004788           JUNCTION     0.02     0.07     9.97     0  02:18        0.07
  HS02004785           JUNCTION     0.03     0.13    10.03     0  02:17        0.13
  HS02004777           JUNCTION     0.13     0.24    10.04     0  02:17        0.24
  HS02004770           JUNCTION     0.10     0.21    10.04     0  02:17        0.21
  HS02004480           JUNCTION     0.06     0.19     9.43     0  02:17        0.19
  HS02004479           JUNCTION     0.10     0.22     9.43     0  02:17        0.22
  HS02004478           JUNCTION     0.05     0.12     9.34     0  02:19        0.12
  YS02001745           JUNCTION     0.07     0.11     7.63     0  03:01        0.11
  YS02001748           JUNCTION     0.27     0.40     7.48     0  04:37        0.40
  YS02001751           JUNCTION     0.45     0.59     7.47     0  04:28        0.59
  YS02001754           JUNCTION     0.70     0.87     7.48     0  04:15        0.87
  YS02001762           JUNCTION     0.89     1.10     7.50     0  04:23        1.06
  YS02001765           JUNCTION     0.85     1.05     7.50     0  04:23        1.01
  YS02001767           JUNCTION     0.81     0.98     7.47     0  04:51        0.98
  YS02001770           JUNCTION     0.80     0.95     7.45     0  04:49        0.95
  YS02001774           JUNCTION     0.87     1.05     7.47     0  04:29        1.03
  YS02001779           JUNCTION     0.62     0.78     7.47     0  04:58        0.78
  YS02001882           JUNCTION     0.27     0.42     7.13     0  02:54        0.42
  YS02001884           JUNCTION     0.36     0.52     7.13     0  02:53        0.52
  YS02001759           JUNCTION     0.93     1.11     7.48     0  04:23        1.09
  YS02001887           JUNCTION     0.44     0.60     7.13     0  02:53        0.60
  YS02001890           JUNCTION     0.47     0.63     7.13     0  02:54        0.63
  YS02001898           JUNCTION     0.24     0.38     7.12     0  02:54        0.38
  YS02001901           JUNCTION     0.36     0.51     7.12     0  02:55        0.51
  YS02001904           JUNCTION     0.33     0.48     7.11     0  02:55        0.48
  YS02001907           JUNCTION     0.66     0.83     7.12     0  02:54        0.83
  YS02001910           JUNCTION     0.45     0.61     7.12     0  02:54        0.61
  YS02001915           JUNCTION     0.25     0.40     7.12     0  02:54        0.40
  YS02001918           JUNCTION     0.07     0.09     7.16     0  03:03        0.09
  YS02001619           JUNCTION     0.41     0.54     7.47     0  04:26        0.53
  YS02001629           JUNCTION     0.75     0.91     7.46     0  04:55        0.91
  YS02001641           JUNCTION     0.86     1.07     7.51     0  04:29        1.04
  YS02001644           JUNCTION     0.86     1.09     7.52     0  04:23        1.06
  YS02001652           JUNCTION     0.71     0.88     7.48     0  04:07        0.88
  YS02001655           JUNCTION     0.47     0.64     7.49     0  04:06        0.63
  YS02001920           JUNCTION     0.17     0.19     7.20     0  03:02        0.19
  YS02001923           JUNCTION     0.06     0.08     7.34     0  03:02        0.08
  YS02001926           JUNCTION     0.13     0.16     7.61     0  03:01        0.16
  YS02001929           JUNCTION     0.06     0.08     7.77     0  03:01        0.08
  YS02001658           JUNCTION     0.21     0.33     7.47     0  04:20        0.33
  YS02001661           JUNCTION     0.14     0.19     7.59     0  02:45        0.19
  YS02001664           JUNCTION     0.06     0.11     8.03     0  02:45        0.11
  YS02001622           JUNCTION     0.43     0.54     7.45     0  04:56        0.54
  YS02001633           JUNCTION     0.84     1.01     7.46     0  04:53        1.01
  YS02001649           JUNCTION     0.90     1.06     7.45     0  04:30        1.06
  YS02001757           JUNCTION     1.02     1.20     7.46     0  04:59        1.19
  YS02001895           JUNCTION     0.23     0.38     7.13     0  02:54        0.38
  YS02001625           JUNCTION     0.71     0.86     7.47     0  04:45        0.86
  YS02163301           JUNCTION     0.78     0.95     7.46     0  04:35        0.94
  YS02163601           JUNCTION     0.90     1.07     7.47     0  04:17        1.05
  YS02164001           JUNCTION     0.84     1.02     7.48     0  04:17        1.01
  YS02001647           JUNCTION     0.70     0.86     7.47     0  04:46        0.85
  YSB1154              JUNCTION     0.23     0.37     9.43     0  02:18        0.37
  YSB6556              JUNCTION     0.13     0.26     9.43     0  02:17        0.26
  YSB1174              JUNCTION     0.19     0.32     9.43     0  02:18        0.32
  YSB1171              JUNCTION     0.38     0.52     9.43     0  02:17        0.52
  YS02006553           JUNCTION     0.67     0.83     7.11     0  02:54        0.83
  YS02006561           JUNCTION     0.13     0.21     6.87     0  02:55        0.21
  YS02006556           JUNCTION     0.64     0.80     7.11     0  02:55        0.80
  YS02006558           JUNCTION     0.68     0.84     7.11     0  02:55        0.84
  YS02001783           JUNCTION     0.22     0.37     6.51     0  02:55        0.37
  YS02001784           JUNCTION     0.26     0.40     6.47     0  02:55        0.40
  YS02001786           JUNCTION     0.22     0.34     6.37     0  02:55        0.34
  YS02001788           JUNCTION     0.16     0.25     6.23     0  02:56        0.25
  YS02001790           JUNCTION     0.19     0.31     5.95     0  02:56        0.31
  YS02001791           JUNCTION     0.13     0.20     5.67     0  02:56        0.20
  YS02001793           JUNCTION     0.08     0.13     4.96     0  02:56        0.13
  WS02004139           JUNCTION     0.60     0.65     5.56     0  03:09        0.65
  WSC                  OUTFALL      0.30     0.35     1.02     0  02:46        0.35
  3                    OUTFALL      0.06     0.19     6.19     0  02:59        0.19
  4                    OUTFALL      0.00     0.00     7.00     0  00:00        0.00
  5                    OUTFALL      0.00     0.00     5.00     0  00:00        0.00
  JK-storage           STORAGE      0.04     3.00     3.80     0  00:00        2.70
  CC-storage           STORAGE      0.28     0.42     7.42     0  05:03        0.42
  XR-storage           STORAGE      5.33     6.70     4.70     0  07:50        6.70
  
  
  *******************
  Node Inflow Summary
  *******************
  
  -------------------------------------------------------------------------------------------------
                                  Maximum  Maximum                  Lateral       Total        Flow
                                  Lateral    Total  Time of Max      Inflow      Inflow     Balance
                                   Inflow   Inflow   Occurrence      Volume      Volume       Error
  Node                 Type           LPS      LPS  days hr:min    10^6 ltr    10^6 ltr     Percent
  -------------------------------------------------------------------------------------------------
  WS02001211           JUNCTION      7.35   292.95     0  03:19       0.207        6.82       0.434
  WS02001212           JUNCTION      0.00   293.27     0  03:19           0        6.79       0.240
  WS02001213           JUNCTION      0.00   293.58     0  03:20           0        6.77       0.316
  WS02003069           JUNCTION      0.32   752.49     0  02:43     0.00902        13.9       0.194
  WS02003072           JUNCTION      0.00   752.43     0  02:44           0        13.9       0.245
  WS02003073           JUNCTION      1.82   754.33     0  02:45      0.0514        13.9       0.272
  WS02003060           JUNCTION     16.53   751.80     0  02:43       0.466        13.9       0.185
  WS02003066           JUNCTION      0.00   463.96     0  02:44           0        6.75       0.065
  WS02003059           JUNCTION      0.00   294.14     0  03:22           0        6.75       0.507
  WS02003067           JUNCTION      0.00   463.95     0  02:44           0        6.76       0.137
  WS02004401           JUNCTION      0.00   465.94     0  02:39           0        6.99       0.300
  WS02004402           JUNCTION      0.00   465.66     0  02:39           0        6.97       0.284
  WS02004403           JUNCTION      0.00   465.53     0  02:40           0        6.95       0.259
  WS02004404           JUNCTION      0.16   465.61     0  02:40     0.00457        6.94       0.196
  WS02004406           JUNCTION      0.00   465.60     0  02:40           0         6.9       0.478
  WS02004409           JUNCTION      0.00   465.58     0  02:41           0        6.86       0.232
  WS02004410           JUNCTION      0.00   464.89     0  02:42           0        6.85       0.264
  WS02004411           JUNCTION      0.00   464.42     0  02:43           0        6.83       0.272
  WS02004412           JUNCTION      0.00   464.15     0  02:43           0        6.81       0.295
  WS02004413           JUNCTION      0.00   464.00     0  02:44           0        6.79       0.438
  WS02004405           JUNCTION      0.04   465.62     0  02:40     0.00107        6.92       0.293
  WS02006109           JUNCTION      1.23   464.25     0  02:36      0.0347        7.09       0.302
  WS02006110           JUNCTION      0.00   464.25     0  02:36           0        7.07       0.271
  WS02006111           JUNCTION      0.00   478.43     0  02:36           0        7.04       0.059
  WS02006112           JUNCTION      8.28   470.26     0  02:36      0.0233        7.06       0.405
  WS02006113           JUNCTION      0.00   464.35     0  02:36           0        7.05       0.131
  WS02006115           JUNCTION      0.00   467.56     0  02:37           0        7.03       0.276
  WS02006116           JUNCTION      0.00   466.51     0  02:38           0        7.01       0.264
  WS02006230           JUNCTION     10.28   338.82     0  03:01        0.29        6.27       0.232
  WS02006231           JUNCTION      0.00   328.27     0  03:00           0        5.99       0.137
  WS02006232           JUNCTION      0.00   328.17     0  03:00           0           6       0.259
  WS02006234           JUNCTION      0.00   328.04     0  03:00           0        6.01       0.119
  WS02006235           JUNCTION      0.00   327.97     0  03:00           0        6.05       0.173
  WS02006238           JUNCTION      0.00   225.32     0  02:45           0        4.04       0.180
  WS02006240           JUNCTION      0.00   224.64     0  02:43           0        4.03       0.276
  WS02006242           JUNCTION      0.00   224.41     0  02:42           0        4.03       0.341
  WS02006243           JUNCTION      0.00   224.37     0  02:41           0        4.03       0.171
  WS02006245           JUNCTION      0.00   226.11     0  02:30           0        4.03       0.194
  WS02006247           JUNCTION      0.00   228.01     0  02:30           0        4.04       0.166
  WS02006248           JUNCTION      0.00   228.97     0  02:30           0        4.04       0.110
  WS02006249           JUNCTION      0.00   230.14     0  02:28           0        4.05       0.241
  WS02006239           JUNCTION      0.00   225.00     0  02:44           0        4.03       0.270
  WS02006251           JUNCTION      0.08   231.57     0  02:27     0.00217        4.06       0.216
  WS02006252           JUNCTION      0.00   200.00     0  02:25           0        3.93       0.011
  WS02006253           JUNCTION      1.27    36.02     0  02:18     0.00302       0.131       2.920
  WS02006256           JUNCTION      0.00   569.45     0  02:59           0        4.05       0.070
  WS02004138           JUNCTION      0.00   285.00     0  00:00           0        6.64       0.069
  WS02004407           JUNCTION      0.00   465.59     0  02:41           0        6.87       0.104
  WS02006228           JUNCTION      0.00   463.01     0  02:36           0        7.07       0.209
  WS02006229           JUNCTION      0.00   463.01     0  02:36           0        7.08       0.171
  WS02006280           JUNCTION      0.00   186.81     0  02:19           0       0.825       0.008
  WS02006284           JUNCTION      0.10   186.81     0  02:19      0.0027       0.827       0.129
  WS02006287           JUNCTION      0.00   186.74     0  02:19           0       0.825       0.088
  WSF200               JUNCTION      0.00   463.95     0  02:44           0        6.75       0.064
  HS02004901           JUNCTION     10.26    10.26     0  02:11      0.0281      0.0282       6.639
  HS02004881           JUNCTION      4.14    35.05     0  02:18      0.0122       0.128       0.236
  HS02004876           JUNCTION      6.53    31.23     0  02:18      0.0235       0.117       0.452
  HS02004870           JUNCTION      7.27    24.85     0  02:18      0.0232      0.0932       0.114
  HS02004862           JUNCTION      5.95    18.09     0  02:19      0.0287      0.0702       0.237
  HS02004856           JUNCTION      5.38    12.19     0  02:18      0.0174      0.0429       3.471
  HS02004852           JUNCTION      0.00     7.16     0  02:18           0      0.0255       0.196
  HS02004848           JUNCTION     11.75    11.75     0  02:21      0.0551      0.0551       0.078
  HS02004842           JUNCTION      0.00     4.99     0  02:31           0      0.0426      43.910
  HS02004837           JUNCTION     17.96    22.24     0  02:17       0.219       0.249       0.328
  HS02004830           JUNCTION      0.15    22.38     0  02:18     0.00423       0.239       0.518
  HS02004824           JUNCTION     13.16    35.37     0  02:21      0.0722        0.31       0.174
  HS02004817           JUNCTION      0.60    35.97     0  02:22      0.0169       0.327       5.375
  HS02004807           JUNCTION     13.69    48.40     0  02:20      0.0426       0.353       1.213
  HS02004802           JUNCTION      0.00    48.62     0  02:21           0       0.348       1.180
  HS02004799           JUNCTION     10.51   117.84     0  02:16      0.0345       0.423       0.539
  HS02004792           JUNCTION     47.16   107.58     0  02:16       0.152       0.389       0.106
  HS02004788           JUNCTION     15.92    62.63     0  02:17       0.095       0.238       0.164
  HS02004785           JUNCTION      0.15    47.14     0  02:16     0.00423       0.145       0.332
  HS02004777           JUNCTION      0.03    47.61     0  02:14    0.000846       0.146       3.684
  HS02004770           JUNCTION     39.98    48.91     0  02:12        0.12       0.146       2.161
  HS02004480           JUNCTION      0.00   139.02     0  02:17           0       0.492       0.145
  HS02004479           JUNCTION      0.00    21.51     0  02:19           0      0.0817       0.900
  HS02004478           JUNCTION      0.00   186.73     0  02:18           0       0.825       0.076
  YS02001745           JUNCTION     64.65    64.65     0  03:01       0.719       0.719       0.111
  YS02001748           JUNCTION      0.04   174.44     0  03:48     0.00127       0.918       0.116
  YS02001751           JUNCTION      0.01   213.67     0  03:47     0.00031       0.917       0.870
  YS02001754           JUNCTION      0.26   165.31     0  03:38     0.00733       0.846       1.821
  YS02001762           JUNCTION      0.00   102.49     0  03:47           0       0.799       2.478
  YS02001765           JUNCTION      0.00    97.13     0  02:50           0       0.798       2.644
  YS02001767           JUNCTION      0.54   104.10     0  03:45      0.0151       0.813       3.611
  YS02001770           JUNCTION     83.46   107.08     0  03:46       0.846       0.974       2.547
  YS02001774           JUNCTION      0.00    55.63     0  04:29           0       0.257       8.444
  YS02001779           JUNCTION      0.01    50.19     0  04:29    0.000141       0.109       9.234
  YS02001882           JUNCTION      0.00     3.63     0  02:08           0     0.00472      51.958
  YS02001884           JUNCTION      0.00    10.62     0  02:08           0       0.019      33.209
  YS02001759           JUNCTION     81.73   182.39     0  02:48        0.79        1.56       1.356
  YS02001887           JUNCTION    108.16   108.16     0  02:43       0.949       0.958       0.738
  YS02001890           JUNCTION      0.00   107.47     0  02:46           0       0.936       0.829
  YS02001898           JUNCTION      0.00   106.98     0  02:49           0       0.924       0.225
  YS02001901           JUNCTION      0.00   106.84     0  02:48           0       0.924       0.585
  YS02001904           JUNCTION      0.00   106.52     0  02:50           0       0.923       0.545
  YS02001907           JUNCTION      0.00   193.24     0  02:56           0        1.97       1.119
  YS02001910           JUNCTION      0.00    87.96     0  03:00           0        1.06       0.951
  YS02001915           JUNCTION     58.01    87.61     0  03:01       0.617        1.06       0.414
  YS02001918           JUNCTION      0.00    29.86     0  03:02           0       0.447       0.235
  YS02001619           JUNCTION     56.37    56.37     0  02:59       0.608       0.611       0.522
  YS02001629           JUNCTION      0.00   115.92     0  04:00           0       0.612       2.005
  YS02001641           JUNCTION      0.00   145.09     0  03:47           0        1.22       1.290
  YS02001644           JUNCTION     61.40   193.33     0  02:58        0.69        1.88       1.024
  YS02001652           JUNCTION      0.00   150.40     0  03:40           0       0.827       1.809
  YS02001655           JUNCTION      0.15   201.89     0  03:49     0.00434       0.852       1.114
  YS02001920           JUNCTION      2.87    29.87     0  03:02      0.0809       0.449       0.437
  YS02001923           JUNCTION      0.04    27.01     0  03:01     0.00106       0.369       0.076
  YS02001926           JUNCTION      0.05    27.03     0  03:01     0.00147       0.369       0.548
  YS02001929           JUNCTION     26.99    26.99     0  03:01       0.368       0.368       0.074
  YS02001658           JUNCTION      0.00   162.53     0  03:53           0       0.848       0.139
  YS02001661           JUNCTION      0.00    76.48     0  02:45           0       0.692       0.099
  YS02001664           JUNCTION     76.49    76.49     0  02:45       0.692       0.692       0.024
  YS02001622           JUNCTION      0.00    86.63     0  03:46           0       0.614       1.634
  YS02001633           JUNCTION     62.42   141.05     0  02:59       0.711        1.26       2.114
  YS02001649           JUNCTION      0.00   285.14     0  02:57           0        2.64       1.248
  YS02001757           JUNCTION      0.00   479.99     0  03:02           0         4.8       1.862
  YS02001895           JUNCTION      0.00   107.14     0  02:46           0       0.928       0.389
  YS02001625           JUNCTION      0.00   133.54     0  04:02           0       0.639       4.047
  YS02163301           JUNCTION      0.00   100.54     0  03:44           0       0.571       3.288
  YS02163601           JUNCTION      0.11   140.14     0  03:39      0.0031        1.23       2.128
  YS02164001           JUNCTION      0.00   158.98     0  03:51           0        1.21       1.370
  YS02001647           JUNCTION      0.00   190.93     0  03:07           0        1.85       1.066
  YSB1154              JUNCTION     11.61    11.61     0  02:15      0.0417      0.0431       3.463
  YSB6556              JUNCTION      0.00    11.58     0  02:18           0      0.0442       2.900
  YSB1174              JUNCTION     11.71    11.71     0  02:10      0.0305      0.0315       4.246
  YSB1171              JUNCTION      0.00    21.63     0  02:17           0      0.0812       8.435
  YS02006553           JUNCTION      0.00   193.30     0  02:56           0        1.96       0.727
  YS02006561           JUNCTION      0.00   283.74     0  02:55           0        2.77       0.023
  YS02006556           JUNCTION      0.00   193.41     0  03:02           0        1.96       0.523
  YS02006558           JUNCTION     91.38   283.75     0  02:54       0.864         2.8       0.160
  YS02001783           JUNCTION      0.00   283.73     0  02:55           0        2.77       0.052
  YS02001784           JUNCTION      1.06   284.79     0  02:55      0.0299         2.8       0.087
  YS02001786           JUNCTION      0.06   284.84     0  02:55     0.00159         2.8       0.084
  YS02001788           JUNCTION      0.07   284.90     0  02:56       0.002         2.8       0.048
  YS02001790           JUNCTION      0.15   285.05     0  02:56     0.00437         2.8       0.061
  YS02001791           JUNCTION      0.00   285.05     0  02:56           0         2.8       0.030
  YS02001793           JUNCTION      0.00   285.05     0  02:56           0         2.8       0.013
  WS02004139           JUNCTION      0.32   290.40     0  00:00     0.00905        6.65       0.498
  WSC                  OUTFALL       0.00   754.38     0  02:46           0        13.9       0.000
  3                    OUTFALL       0.00   458.75     0  02:59           0        2.01       0.000
  4                    OUTFALL       0.00     0.00     0  00:00           0           0       0.000 ltr
  5                    OUTFALL       0.00     0.00     0  00:00           0           0       0.000 ltr
  JK-storage           STORAGE       0.00   285.05     0  02:56           0        2.95     -27.183
  CC-storage           STORAGE       0.00   470.85     0  03:02           0        4.58       0.276
  XR-storage           STORAGE     305.10   305.10     0  02:53        6.84        7.44       0.000
  
  
  **********************
  Node Surcharge Summary
  **********************
  
  Surcharging occurs when water rises above the top of the highest conduit.
  ---------------------------------------------------------------------
                                               Max. Height   Min. Depth
                                   Hours       Above Crown    Below Rim
  Node                 Type      Surcharged         Meters       Meters
  ---------------------------------------------------------------------
  WS02006109           JUNCTION        0.74          0.068        1.752
  WS02006232           JUNCTION        0.25          0.010        1.470
  WS02006228           JUNCTION        0.72          0.079        2.121
  YS02001762           JUNCTION        2.15          0.098        1.052
  YS02001765           JUNCTION        0.21          0.048        1.052
  YS02001774           JUNCTION        1.33          0.046        1.004
  YS02001759           JUNCTION        3.67          0.114        1.096
  YS02001641           JUNCTION        0.50          0.072        1.028
  YS02001644           JUNCTION        0.83          0.085        0.835
  YS02001649           JUNCTION        2.50          0.065        0.985
  YS02001757           JUNCTION        5.02          0.196        1.014
  YS02163601           JUNCTION        2.28          0.072        1.008
  YS02164001           JUNCTION        0.04          0.020        1.080
  
  
  *********************
  Node Flooding Summary
  *********************
  
  No nodes were flooded.
  
  
  **********************
  Storage Volume Summary
  **********************
  
  --------------------------------------------------------------------------------------------------
                         Average     Avg  Evap Exfil       Maximum     Max    Time of Max    Maximum
                          Volume    Pcnt  Pcnt  Pcnt        Volume    Pcnt     Occurrence    Outflow
  Storage Unit           1000 m3    Full  Loss  Loss       1000 m3    Full    days hr:min        LPS
  --------------------------------------------------------------------------------------------------
  JK-storage               0.002       1     0     0         0.151      52       0  00:00     569.45
  CC-storage               0.782       5     0     0         1.178       8       0  05:03     200.00
  XR-storage               0.639      69     0     0         0.804      87       0  07:50     285.00
  
  
  ***********************
  Outfall Loading Summary
  ***********************
  
  -----------------------------------------------------------
                         Flow       Avg       Max       Total
                         Freq      Flow      Flow      Volume
  Outfall Node           Pcnt       LPS       LPS    10^6 ltr
  -----------------------------------------------------------
  WSC                   99.99    561.65    754.38      13.864
  3                     77.77    122.41    458.75       2.006
  4                      0.00      0.00      0.00       0.000
  5                      0.00      0.00      0.00       0.000
  -----------------------------------------------------------
  System                44.44    684.06   1161.07      15.870
  
  
  ********************
  Link Flow Summary
  ********************
  
  -----------------------------------------------------------------------------
                                 Maximum  Time of Max   Maximum    Max/    Max/
                                  |Flow|   Occurrence   |Veloc|    Full    Full
  Link                 Type          LPS  days hr:min     m/sec    Flow   Depth
  -----------------------------------------------------------------------------
  WS02003066WSF200     CONDUIT    463.95     0  02:44      2.64    0.08    0.21
  WS02006287WS02006284 CONDUIT    186.72     0  02:19      1.57    0.09    0.21
  WS02006284WS02006280 CONDUIT    186.81     0  02:19      1.81    0.08    0.19
  WS02006280WS02006229 CONDUIT    186.81     0  02:19      2.91    0.04    0.14
  WS02006229WS02006228 CONDUIT    463.01     0  02:36      0.92    1.53    1.00
  WS02006256WS02006235 CONDUIT    166.25     0  00:01      2.58    1.76    1.00
  WS02006253WS02006251 CONDUIT     36.04     0  02:20      0.47    0.11    0.63
  WS02006252WS02006251 CONDUIT    200.29     0  02:25      1.97    0.74    0.76
  WS02006251WS02006249 CONDUIT    230.14     0  02:28      0.96    0.66    0.63
  WS02006249WS02006248 CONDUIT    228.97     0  02:30      1.04    1.25    0.60
  WS02006248WS02006247 CONDUIT    228.01     0  02:30      1.01    0.50    0.63
  WS02006247WS02006245 CONDUIT    226.11     0  02:30      0.96    1.79    0.67
  WS02006245WS02006243 CONDUIT    224.37     0  02:41      0.99    0.66    0.68
  WS02006243WS02006242 CONDUIT    224.41     0  02:42      0.82    0.48    0.78
  WS02006242WS02006240 CONDUIT    224.64     0  02:43      0.76    0.89    0.85
  WS02006240WS02006239 CONDUIT    225.00     0  02:44      0.83    0.71    0.83
  WS02006239WS02006238 CONDUIT    225.32     0  02:45      0.76    0.72    0.93
  WS02006238WS02006235 CONDUIT    229.63     0  06:00      1.25    0.51    0.96
  WS02006235WS02006234 CONDUIT    328.04     0  03:00      0.94    3.46    0.90
  WS02006234WS02006232 CONDUIT    328.17     0  03:00      1.13    0.66    0.95
  WS02006232WS02006231 CONDUIT    328.27     0  03:00      0.94    0.69    0.91
  WS02006231WS02006230 CONDUIT    328.54     0  03:01      1.29    4.98    0.78
  WS02006230WS02006229 CONDUIT    339.43     0  03:01      0.88    7.55    1.00
  WS02006228WS02006109 CONDUIT    463.02     0  02:36      0.92    2.02    1.00
  WS02006116WS02004401 CONDUIT    465.94     0  02:39      0.73    0.64    0.78
  WS02006115WS02006116 CONDUIT    466.51     0  02:38      0.80    0.60    0.70
  WS02006113WS02006111 CONDUIT    478.43     0  02:36      2.33    0.57    0.43
  WS02006112WS02006115 CONDUIT    467.56     0  02:37      0.68    0.28    0.83
  WS02006111WS02006112 CONDUIT    466.05     0  02:37      1.33    0.22    0.66
  WS02006110WS02006113 CONDUIT    464.35     0  02:36      1.13    0.42    0.76
  WS02006109WS02006110 CONDUIT    464.25     0  02:36      0.93    0.89    0.97
  WS02004411WS02004412 CONDUIT    464.15     0  02:43      0.86    0.66    0.65
  WS02004401WS02004402 CONDUIT    465.66     0  02:39      0.77    0.56    0.81
  WS02004413WS02003067 CONDUIT    463.95     0  02:44      1.03    0.20    0.56
  WS02004412WS02004413 CONDUIT    464.00     0  02:44      0.75    0.31    0.74
  WS02004410WS02004411 CONDUIT    464.42     0  02:43      0.88    0.63    0.64
  WS02004409WS02004410 CONDUIT    464.89     0  02:42      0.91    0.60    0.62
  WS02004407WS02004409 CONDUIT    465.58     0  02:41      1.40    0.16    0.44
  WS02004406WS02004407 CONDUIT    465.59     0  02:41      0.96    0.21    0.60
  WS02004405WS02004406 CONDUIT    465.60     0  02:40      0.66    0.92    0.91
  WS02004404WS02004405 CONDUIT    465.59     0  02:40      0.84    4.56    0.91
  WS02004403WS02004404 CONDUIT    465.45     0  02:40      0.74    0.34    0.88
  WS02004402WS02004403 CONDUIT    465.53     0  02:40      0.75    0.67    0.83
  WS02004139WS02001211 CONDUIT    285.60     0  03:19      0.81    0.36    0.53
  WS02004138WS02004139 CONDUIT    290.07     0  00:00      3.33    0.06    0.38
  WS02003067WS02003066 CONDUIT    463.96     0  02:44      1.11    0.15    0.40
  WS02001213WS02003059 CONDUIT    294.14     0  03:22      0.80    0.49    0.70
  WS02001212WS02001213 CONDUIT    293.58     0  03:20      1.19    0.45    0.39
  WS02001211WS02001212 CONDUIT    293.27     0  03:19      0.67    0.22    0.57
  WS02003072WS02003073 CONDUIT    752.51     0  02:45      1.60    1.63    0.43
  WS02003069WS02003072 CONDUIT    752.43     0  02:44      1.51    0.36    0.45
  WS02003060WS02003069 CONDUIT    752.17     0  02:43      1.77    0.29    0.40
  WS02003059WS02003060 CONDUIT    294.92     0  03:22      0.82    0.19    0.59
  HS02004901HS02004770 CONDUIT      9.30     0  02:15      0.04    0.04    0.31
  HS02004876HS02004881 CONDUIT     31.29     0  02:19      0.52    0.33    0.09
  HS02004870HS02004876 CONDUIT     24.83     0  02:19      0.37    0.02    0.10
  HS02004842HS02004848 CONDUIT      4.99     0  02:31      0.03    0.00    0.27
  HS02004837HS02004842 CONDUIT      5.16     0  02:31      0.41    0.00    0.29
  HS02004830HS02004837 CONDUIT     22.23     0  02:18      0.43    0.02    0.07
  HS02004824HS02004830 CONDUIT     22.37     0  02:19      0.47    0.03    0.07
  HS02004817HS02004824 CONDUIT     35.37     0  02:22      0.17    0.02    0.39
  HS02004770HS02004777 CONDUIT     47.58     0  02:14      0.21    0.09    0.32
  HS02004799HS02004480 CONDUIT    117.62     0  02:17      0.56    0.15    0.30
  HS02004792HS02004799 CONDUIT    107.52     0  02:16      0.65    0.07    0.24
  HS02004788HS02004792 CONDUIT     62.57     0  02:18      0.80    0.04    0.11
  HS02004785HS02004788 CONDUIT     47.05     0  02:18      0.49    0.35    0.14
  HS02004777HS02004785 CONDUIT     46.99     0  02:16      0.26    0.06    0.26
  HS02004480HS02004478 CONDUIT    138.92     0  02:18      0.92    0.59    0.22
  HS02004479HS02004480 CONDUIT     21.74     0  02:20      0.16    0.02    0.29
  HS02004862HS02004870 CONDUIT     18.05     0  02:20      0.45    0.02    0.06
  HS02004848HS02004852 CONDUIT      7.16     0  02:18      0.30    0.01    0.03
  HS02004856HS02004862 CONDUIT     12.16     0  02:19      0.33    0.01    0.05
  HS02004852HS02004856 CONDUIT      7.13     0  02:20      0.11    0.01    0.09
  HS02004802HS02004478 CONDUIT     48.90     0  02:22      0.29    0.04    0.24
  HS02004478WS02006287 CONDUIT    186.74     0  02:19      1.26    0.05    0.16
  HS02004817HS02004807 CONDUIT     36.40     0  02:23      0.10    0.02    0.50
  HS02004807HS02004802 CONDUIT     48.62     0  02:21      0.24    0.09    0.29
  YS02001759YS02001757 CONDUIT    177.85     0  02:53      0.23    0.13    1.00
  YS02001762YS02001759 CONDUIT    114.37     0  03:44      0.17    0.13    1.00
  YS02001765YS02001762 CONDUIT    102.49     0  03:47      0.23    0.10    1.00
  YS02001770YS02001767 CONDUIT    103.56     0  03:45      0.32    0.41    0.96
  YS02001774YS02001770 CONDUIT     56.48     0  04:24      0.14    0.04    0.96
  YS02001779YS02001774 CONDUIT     50.18     0  04:29      0.07    0.03    0.89
  YS02001649YS02001757 CONDUIT    298.54     0  03:38      0.38    0.18    1.00
  YS02001767YS02001765 CONDUIT     97.13     0  02:50      0.26    0.12    0.99
  YS02006561YS02001783 CONDUIT    283.73     0  02:55      1.74    0.15    0.36
  YS02001783YS02001784 CONDUIT    283.73     0  02:55      1.19    0.39    0.48
  YS02001784YS02001785 CONDUIT    284.78     0  02:55      1.26    0.66    0.46
  YS02001788YS02001790 CONDUIT    284.90     0  02:56      1.83    0.21    0.35
  YS02001790YS02001791 CONDUIT    285.05     0  02:56      2.11    0.31    0.31
  YS02001791YS02001793 CONDUIT    285.05     0  02:56      3.83    0.12    0.21
  YS02001910YS02001907 CONDUIT     88.11     0  03:01      0.49    0.05    0.71
  YS02001786YS02001788 CONDUIT    284.83     0  02:56      1.70    0.55    0.37
  YS02001915YS02001910 CONDUIT     87.96     0  03:00      0.44    0.04    0.50
  YS02001918YS02001915 CONDUIT     29.84     0  03:03      0.44    0.02    0.24
  YS02001923YS02001920 CONDUIT     27.00     0  03:02      0.42    0.01    0.14
  YS02001926YS02001923 CONDUIT     26.97     0  03:01      0.47    0.04    0.13
  YS02001929YS02001926 CONDUIT     26.97     0  03:01      0.49    0.01    0.12
  YS02001920YS02001918 CONDUIT     29.86     0  03:02      0.44    0.03    0.14
  YS02001629YS02163301 CONDUIT    100.54     0  03:44      0.14    0.12    0.93
  YS02001619YS02001622 CONDUIT     86.63     0  03:46      0.64    0.13    0.54
  YS02001622YS02001625 CONDUIT    100.94     0  03:46      0.24    0.05    0.70
  YS02001625YS02001629 CONDUIT    115.92     0  04:00      0.24    0.06    0.68
  YS02163301YS02001633 CONDUIT     78.68     0  02:59      0.11    0.07    0.97
  YS02163601YS02164001 CONDUIT    158.98     0  03:51      0.20    0.14    1.00
  YS02164001YS02001641 CONDUIT    145.09     0  03:47      0.19    0.20    1.00
  YS02001641YS02001644 CONDUIT    138.56     0  03:44      0.18    0.45    1.00
  YS02001647YS02001649 CONDUIT    204.86     0  03:36      0.28    0.11    0.93
  YS02006553YS02006556 CONDUIT    193.41     0  03:02      0.29    0.17    0.80
  YS02006556YS02006558 CONDUIT    193.60     0  03:02      0.28    0.15    0.82
  YSB6556YSB1171       CONDUIT     11.76     0  02:19      0.05    0.01    0.56
  YS02001907YS02006553 CONDUIT    193.30     0  02:56      0.24    0.23    0.90
  YS02006558YS02006561 CONDUIT    283.74     0  02:55      2.24    0.63    0.46
  YS02001633YS02163601 CONDUIT    140.03     0  03:39      0.18    0.15    0.99
  YS02001644YS02001647 CONDUIT    190.93     0  03:07      0.26    0.11    0.93
  YS02001745YS02001748 CONDUIT     64.65     0  03:01      1.37    0.02    0.20
  YS02001748YS02001751 CONDUIT    213.66     0  03:47      1.06    0.11    0.47
  YS02001751YS02001754 CONDUIT     81.62     0  03:04      0.95    0.04    0.71
  YS02001754YS02001757 CONDUIT    192.12     0  03:46      0.33    0.08    0.94
  YS02001882YS02001884 CONDUIT      3.63     0  02:08      0.06    0.00    0.44
  YS02001884YS02001887 CONDUIT     10.62     0  02:08      0.06    0.01    0.53
  YS02001890YS02001895 CONDUIT    107.14     0  02:46      0.27    0.05    0.50
  YS02001895YS02001898 CONDUIT    106.98     0  02:49      0.47    0.19    0.37
  YS02001898YS02001901 CONDUIT    106.84     0  02:48      0.32    0.07    0.45
  YS02001901YS02001904 CONDUIT    106.52     0  02:50      0.27    0.17    0.50
  YS02001904YS02001907 CONDUIT    106.55     0  02:50      0.20    0.04    0.66
  YS02001887YS02001890 CONDUIT    107.47     0  02:46      0.23    0.18    0.59
  YS02001652YS02001649 CONDUIT    203.47     0  03:54      0.32    0.10    0.94
  YS02001655YS02001652 CONDUIT    115.13     0  03:35      1.03    0.06    0.74
  YS02001658YS02001655 CONDUIT    201.73     0  03:49      1.23    0.09    0.45
  YS02001661YS02001658 CONDUIT     76.48     0  02:45      1.41    0.03    0.21
  YS02001664YS02001661 CONDUIT     76.48     0  02:45      1.06    0.02    0.15
  YSB1154YSB6556       CONDUIT     11.58     0  02:18      0.19    0.02    0.45
  YSB1174YSB1171       CONDUIT     10.86     0  02:11      0.05    0.02    0.57
  YSB1171HS02004479    CONDUIT     21.51     0  02:19      0.54    0.01    0.44
  HS02004881HS02006253 CONDUIT     35.05     0  02:18      1.60    0.01    0.10
  YS02001793JiankangQianchi CONDUIT    285.05     0  02:56     12.82    0.02    0.50
  YS02001757CaochengTiaoxuchi CONDUIT    470.85     0  03:02      1.03    0.21    0.71
  WSF200WS02003060     CONDUIT    463.86     0  02:44      1.62    0.10    0.31
  1                    CONDUIT    754.38     0  02:46      3.08    0.26    0.35
  2                    CONDUIT      0.00     0  00:00      0.00    0.00    0.00
  3                    CONDUIT    458.75     0  02:59      9.63    0.73    0.64
  4                    CONDUIT      0.00     0  00:00      0.00    0.00    0.00
  CC-Pump-1            PUMP         0.00     0  00:00              0.00
  CC-Pump-2            PUMP       200.00     0  02:25              1.00
  JK-Pump-1            PUMP       284.73     0  02:59              0.95
  JK-Pump-2            PUMP       300.00     0  00:00              1.00
  XR-Pump-1            PUMP        95.00     0  00:00              1.00
  XR-Pump-2            PUMP         0.00     0  00:00              0.00
  XR-Pump-3            PUMP        95.00     0  00:00              1.00
  XR-Pump-4            PUMP        95.00     0  00:00              1.00
  
  
  ***************************
  Flow Classification Summary
  ***************************
  
  -------------------------------------------------------------------------------------
                      Adjusted    ---------- Fraction of Time in Flow Class ---------- 
                       /Actual         Up    Down  Sub   Sup   Up    Down  Norm  Inlet 
  Conduit               Length    Dry  Dry   Dry   Crit  Crit  Crit  Crit  Ltd   Ctrl  
  -------------------------------------------------------------------------------------
  WS02003066WSF200        1.00   0.06  0.00  0.00  0.00  0.94  0.00  0.00  0.76  0.00
  WS02006287WS02006284    1.00   0.04  0.01  0.00  0.70  0.24  0.00  0.00  0.78  0.00
  WS02006284WS02006280    1.00   0.05  0.00  0.00  0.00  0.00  0.00  0.95  0.00  0.00
  WS02006280WS02006229    1.00   0.05  0.00  0.00  0.00  0.00  0.00  0.95  0.00  0.00
  WS02006229WS02006228    1.00   0.00  0.00  0.00  0.99  0.00  0.00  0.01  0.00  0.00
  WS02006256WS02006235    1.00   0.00  0.00  0.00  1.00  0.00  0.00  0.00  0.00  0.00
  WS02006253WS02006251    1.00   0.03  0.01  0.00  0.96  0.00  0.00  0.00  0.00  0.00
  WS02006252WS02006251    1.00   0.09  0.00  0.00  0.00  0.00  0.91  0.00  0.00  0.00
  WS02006251WS02006249    1.00   0.00  0.00  0.00  1.00  0.00  0.00  0.00  0.28  0.00
  WS02006249WS02006248    1.00   0.00  0.02  0.00  0.90  0.00  0.07  0.00  0.00  0.00
  WS02006248WS02006247    1.00   0.02  0.00  0.00  0.97  0.00  0.00  0.00  0.17  0.00
  WS02006247WS02006245    1.00   0.02  0.00  0.00  0.98  0.00  0.00  0.00  0.00  0.00
  WS02006245WS02006243    1.00   0.01  0.00  0.00  0.94  0.00  0.00  0.04  0.01  0.00
  WS02006243WS02006242    1.00   0.01  0.00  0.00  0.99  0.00  0.00  0.00  0.26  0.00
  WS02006242WS02006240    1.00   0.00  0.00  0.00  1.00  0.00  0.00  0.00  0.00  0.00
  WS02006240WS02006239    1.00   0.00  0.00  0.00  0.95  0.00  0.00  0.04  0.01  0.00
  WS02006239WS02006238    1.00   0.00  0.00  0.00  1.00  0.00  0.00  0.00  0.01  0.00
  WS02006238WS02006235    1.00   0.00  0.00  0.00  1.00  0.00  0.00  0.00  0.00  0.00
  WS02006235WS02006234    1.00   0.00  0.00  0.00  0.95  0.00  0.05  0.00  0.00  0.00
  WS02006234WS02006232    1.00   0.00  0.00  0.00  1.00  0.00  0.00  0.00  0.02  0.00
  WS02006232WS02006231    1.00   0.00  0.00  0.00  0.99  0.00  0.00  0.00  0.00  0.00
  WS02006231WS02006230    1.00   0.00  0.00  0.00  0.34  0.00  0.66  0.00  0.00  0.00
  WS02006230WS02006229    1.00   0.00  0.00  0.00  0.98  0.00  0.00  0.02  0.01  0.00
  WS02006228WS02006109    1.00   0.00  0.00  0.00  1.00  0.00  0.00  0.00  0.00  0.00
  WS02006116WS02004401    1.00   0.03  0.00  0.00  0.97  0.00  0.00  0.00  0.00  0.00
  WS02006115WS02006116    1.00   0.03  0.00  0.00  0.97  0.00  0.00  0.01  0.00  0.00
  WS02006113WS02006111    1.00   0.02  0.00  0.00  0.00  0.98  0.00  0.00  0.10  0.00
  WS02006112WS02006115    1.00   0.02  0.00  0.00  0.97  0.00  0.00  0.00  0.00  0.00
  WS02006111WS02006112    1.00   0.02  0.00  0.00  0.97  0.00  0.00  0.00  0.98  0.00
  WS02006110WS02006113    1.00   0.01  0.01  0.00  0.98  0.00  0.00  0.00  0.00  0.00
  WS02006109WS02006110    1.00   0.00  0.01  0.00  0.98  0.00  0.01  0.00  0.00  0.00
  WS02004411WS02004412    1.00   0.04  0.00  0.00  0.96  0.00  0.00  0.00  0.00  0.00
  WS02004401WS02004402    1.00   0.03  0.00  0.00  0.97  0.00  0.00  0.00  0.00  0.00
  WS02004413WS02003067    1.00   0.04  0.01  0.00  0.00  0.00  0.94  0.00  0.00  0.00
  WS02004412WS02004413    1.00   0.04  0.00  0.00  0.96  0.00  0.00  0.00  0.03  0.00
  WS02004410WS02004411    1.00   0.04  0.00  0.00  0.96  0.00  0.00  0.00  0.04  0.00
  WS02004409WS02004410    1.00   0.04  0.00  0.00  0.96  0.00  0.00  0.00  0.03  0.00
  WS02004407WS02004409    1.00   0.04  0.00  0.00  0.96  0.00  0.00  0.00  0.89  0.00
  WS02004406WS02004407    1.00   0.00  0.04  0.00  0.96  0.00  0.00  0.00  0.00  0.00
  WS02004405WS02004406    1.00   0.00  0.00  0.00  1.00  0.00  0.00  0.00  0.00  0.00
  WS02004404WS02004405    1.00   0.00  0.00  0.00  1.00  0.00  0.00  0.00  0.00  0.00
  WS02004403WS02004404    1.00   0.00  0.03  0.00  0.97  0.00  0.00  0.00  0.01  0.00
  WS02004402WS02004403    1.00   0.03  0.00  0.00  0.97  0.00  0.00  0.00  0.00  0.00
  WS02004139WS02001211    1.00   0.00  0.00  0.00  1.00  0.00  0.00  0.00  0.00  0.00
  WS02004138WS02004139    1.00   0.00  0.00  0.00  0.99  0.01  0.00  0.00  1.00  0.00
  WS02003067WS02003066    1.00   0.06  0.00  0.00  0.94  0.00  0.00  0.00  0.00  0.00
  WS02001213WS02003059    1.00   0.00  0.00  0.00  0.99  0.00  0.00  0.00  0.00  0.00
  WS02001212WS02001213    1.00   0.00  0.00  0.00  0.89  0.00  0.11  0.00  0.00  0.00
  WS02001211WS02001212    1.00   0.00  0.00  0.00  1.00  0.00  0.00  0.00  0.00  0.00
  WS02003072WS02003073    1.00   0.00  0.00  0.00  0.00  0.00  0.00  1.00  0.00  0.00
  WS02003069WS02003072    1.00   0.00  0.00  0.00  0.99  0.01  0.00  0.00  0.28  0.00
  WS02003060WS02003069    1.00   0.00  0.00  0.00  0.98  0.02  0.00  0.00  0.10  0.00
  WS02003059WS02003060    1.00   0.00  0.00  0.00  1.00  0.00  0.00  0.00  0.01  0.00
  HS02004901HS02004770    1.00   0.04  0.00  0.00  0.95  0.00  0.00  0.00  0.03  0.00
  HS02004876HS02004881    1.00   0.02  0.00  0.00  0.98  0.00  0.00  0.00  0.00  0.00
  HS02004870HS02004876    1.00   0.01  0.00  0.00  0.99  0.00  0.00  0.00  0.95  0.00
  HS02004842HS02004848    1.00   0.00  0.05  0.00  0.95  0.00  0.00  0.00  0.69  0.00
  HS02004837HS02004842    1.00   0.00  0.00  0.00  0.99  0.01  0.00  0.00  0.11  0.00
  HS02004830HS02004837    1.00   0.00  0.00  0.00  1.00  0.00  0.00  0.00  0.99  0.00
  HS02004824HS02004830    1.00   0.00  0.00  0.00  1.00  0.00  0.00  0.00  0.00  0.00
  HS02004817HS02004824    1.00   0.00  0.00  0.00  1.00  0.00  0.00  0.00  1.00  0.00
  HS02004770HS02004777    1.00   0.00  0.05  0.00  0.95  0.00  0.00  0.00  0.07  0.00
  HS02004799HS02004480    1.00   0.00  0.03  0.00  0.94  0.00  0.03  0.00  0.00  0.00
  HS02004792HS02004799    1.00   0.00  0.00  0.00  0.99  0.01  0.00  0.00  0.98  0.00
  HS02004788HS02004792    1.00   0.00  0.00  0.00  0.99  0.01  0.00  0.00  0.98  0.00
  HS02004785HS02004788    1.00   0.00  0.00  0.00  1.00  0.00  0.00  0.00  0.00  0.00
  HS02004777HS02004785    1.00   0.00  0.00  0.00  1.00  0.00  0.00  0.00  0.21  0.00
  HS02004480HS02004478    1.00   0.05  0.00  0.00  0.74  0.00  0.00  0.21  0.00  0.00
  HS02004479HS02004480    1.00   0.03  0.00  0.00  0.97  0.00  0.00  0.00  0.16  0.00
  HS02004862HS02004870    1.00   0.00  0.00  0.00  1.00  0.00  0.00  0.00  0.06  0.00
  HS02004848HS02004852    1.00   0.05  0.00  0.00  0.95  0.00  0.00  0.00  0.71  0.00
  HS02004856HS02004862    1.00   0.00  0.07  0.00  0.93  0.00  0.00  0.00  0.74  0.00
  HS02004852HS02004856    1.00   0.04  0.01  0.00  0.95  0.00  0.00  0.00  0.83  0.00
  HS02004802HS02004478    1.00   0.05  0.01  0.00  0.95  0.00  0.00  0.00  0.01  0.00
  HS02004478WS02006287    1.00   0.05  0.00  0.00  0.89  0.06  0.00  0.00  0.79  0.00
  HS02004817HS02004807    1.00   0.00  0.05  0.00  0.95  0.00  0.00  0.00  0.00  0.00
  HS02004807HS02004802    1.00   0.05  0.00  0.00  0.95  0.00  0.00  0.00  0.01  0.00
  YS02001759YS02001757    1.00   0.00  0.00  0.00  1.00  0.00  0.00  0.00  0.17  0.00
  YS02001762YS02001759    1.00   0.00  0.00  0.00  1.00  0.00  0.00  0.00  0.05  0.00
  YS02001765YS02001762    1.00   0.00  0.00  0.00  1.00  0.00  0.00  0.00  0.22  0.00
  YS02001770YS02001767    1.00   0.00  0.00  0.00  1.00  0.00  0.00  0.00  0.00  0.00
  YS02001774YS02001770    1.00   0.00  0.05  0.00  0.95  0.00  0.00  0.00  0.07  0.00
  YS02001779YS02001774    1.00   0.00  0.00  0.00  1.00  0.00  0.00  0.00  0.27  0.00
  YS02001649YS02001757    1.00   0.00  0.00  0.00  1.00  0.00  0.00  0.00  0.19  0.00
  YS02001767YS02001765    1.00   0.00  0.00  0.00  1.00  0.00  0.00  0.00  0.01  0.00
  YS02006561YS02001783    1.00   0.07  0.00  0.00  0.00  0.93  0.00  0.00  0.73  0.00
  YS02001783YS02001784    1.00   0.00  0.07  0.00  0.93  0.00  0.00  0.00  0.00  0.00
  YS02001784YS02001785    1.00   0.00  0.00  0.00  1.00  0.00  0.00  0.00  0.25  0.00
  YS02001788YS02001790    1.00   0.00  0.00  0.00  0.07  0.93  0.00  0.00  0.80  0.00
  YS02001790YS02001791    1.00   0.00  0.00  0.00  0.02  0.98  0.00  0.00  0.51  0.00
  YS02001791YS02001793    1.00   0.00  0.00  0.00  0.00  1.00  0.00  0.00  0.00  0.00
  YS02001910YS02001907    1.00   0.00  0.00  0.00  0.97  0.00  0.00  0.03  0.13  0.00
  YS02001786YS02001788    1.00   0.00  0.00  0.00  0.07  0.93  0.00  0.00  0.00  0.00
  YS02001915YS02001910    1.00   0.00  0.00  0.00  0.99  0.01  0.00  0.00  0.24  0.00
  YS02001918YS02001915    1.00   0.00  0.01  0.00  0.98  0.01  0.00  0.00  0.81  0.00
  YS02001923YS02001920    1.00   0.00  0.00  0.00  1.00  0.00  0.00  0.00  1.00  0.00
  YS02001926YS02001923    1.00   0.00  0.03  0.00  0.00  0.00  0.97  0.00  0.00  0.00
  YS02001929YS02001926    1.00   0.00  0.04  0.00  0.96  0.00  0.00  0.00  0.87  0.00
  YS02001920YS02001918    1.00   0.00  0.01  0.00  0.99  0.00  0.00  0.00  0.00  0.00
  YS02001629YS02163301    1.00   0.06  0.00  0.00  0.94  0.00  0.00  0.00  0.00  0.00
  YS02001619YS02001622    1.00   0.04  0.00  0.00  0.96  0.00  0.00  0.00  0.00  0.00
  YS02001622YS02001625    1.00   0.05  0.00  0.00  0.95  0.00  0.00  0.00  0.13  0.00
  YS02001625YS02001629    1.00   0.05  0.03  0.00  0.91  0.00  0.02  0.00  0.00  0.00
  YS02163301YS02001633    1.00   0.00  0.06  0.00  0.94  0.00  0.00  0.00  0.00  0.00
  YS02163601YS02164001    1.00   0.00  0.04  0.00  0.96  0.00  0.00  0.00  0.00  0.00
  YS02164001YS02001641    1.00   0.01  0.03  0.00  0.96  0.00  0.00  0.00  0.07  0.00
  YS02001641YS02001644    1.00   0.00  0.01  0.00  0.99  0.00  0.00  0.00  0.00  0.00
  YS02001647YS02001649    1.00   0.00  0.07  0.00  0.93  0.00  0.00  0.00  0.01  0.00
  YS02006553YS02006556    1.00   0.01  0.00  0.00  0.99  0.00  0.00  0.00  0.03  0.00
  YS02006556YS02006558    1.00   0.00  0.00  0.00  1.00  0.00  0.00  0.00  0.00  0.00
  YSB6556YSB1171          1.00   0.03  0.01  0.00  0.96  0.00  0.00  0.00  0.00  0.00
  YS02001907YS02006553    1.00   0.00  0.02  0.00  0.97  0.00  0.00  0.00  0.00  0.00
  YS02006558YS02006561    1.00   0.07  0.00  0.00  0.00  0.93  0.00  0.00  0.72  0.00
  YS02001633YS02163601    1.00   0.00  0.01  0.00  0.99  0.00  0.00  0.00  0.20  0.00
  YS02001644YS02001647    1.00   0.00  0.07  0.00  0.93  0.00  0.00  0.00  0.00  0.00
  YS02001745YS02001748    1.00   0.00  0.00  0.00  0.82  0.04  0.00  0.14  0.67  0.00
  YS02001748YS02001751    1.00   0.00  0.00  0.00  0.97  0.03  0.00  0.00  0.25  0.00
  YS02001751YS02001754    1.00   0.00  0.00  0.00  0.92  0.00  0.00  0.07  0.02  0.00
  YS02001754YS02001757    1.00   0.00  0.00  0.00  0.99  0.01  0.00  0.00  0.26  0.00
  YS02001882YS02001884    1.00   0.06  0.00  0.00  0.94  0.00  0.00  0.00  0.00  0.00
  YS02001884YS02001887    1.00   0.03  0.01  0.00  0.96  0.00  0.00  0.00  0.00  0.00
  YS02001890YS02001895    1.00   0.00  0.06  0.00  0.94  0.00  0.00  0.00  0.00  0.00
  YS02001895YS02001898    1.00   0.06  0.00  0.00  0.93  0.00  0.01  0.00  0.00  0.00
  YS02001898YS02001901    1.00   0.06  0.00  0.00  0.93  0.00  0.00  0.00  0.02  0.00
  YS02001901YS02001904    1.00   0.06  0.00  0.00  0.94  0.00  0.00  0.00  0.00  0.00
  YS02001904YS02001907    1.00   0.00  0.06  0.00  0.94  0.00  0.00  0.00  0.00  0.00
  YS02001887YS02001890    1.00   0.00  0.00  0.00  0.97  0.00  0.02  0.00  0.00  0.00
  YS02001652YS02001649    1.00   0.00  0.00  0.00  1.00  0.00  0.00  0.00  0.26  0.00
  YS02001655YS02001652    1.00   0.00  0.00  0.00  0.93  0.00  0.00  0.07  0.02  0.00
  YS02001658YS02001655    1.00   0.00  0.06  0.00  0.91  0.03  0.00  0.00  0.13  0.00
  YS02001661YS02001658    1.00   0.05  0.00  0.00  0.84  0.11  0.00  0.00  0.73  0.00
  YS02001664YS02001661    1.00   0.04  0.00  0.00  0.80  0.16  0.00  0.00  0.86  0.00
  YSB1154YSB6556          1.00   0.04  0.00  0.00  0.96  0.00  0.00  0.00  0.02  0.00
  YSB1174YSB1171          1.00   0.03  0.01  0.00  0.96  0.00  0.00  0.00  0.00  0.00
  YSB1171HS02004479       1.00   0.03  0.00  0.00  0.97  0.00  0.00  0.00  0.13  0.00
  HS02004881HS02006253    1.00   0.03  0.00  0.00  0.90  0.01  0.00  0.07  0.69  0.00
  YS02001793JiankangQianchi    1.00   0.00  0.00  0.00  0.02  0.98  0.00  0.00  0.03  0.00
  YS02001757CaochengTiaoxuchi    1.00   0.00  0.09  0.00  0.91  0.00  0.00  0.00  0.00  0.00
  WSF200WS02003060        1.00   0.00  0.06  0.00  0.86  0.08  0.00  0.00  0.12  0.00
  1                       1.00   0.00  0.00  0.00  0.00  1.00  0.00  0.00  0.36  0.00
  2                       1.00   1.00  0.00  0.00  0.00  0.00  0.00  0.00  0.00  0.00
  3                       1.00   0.22  0.00  0.00  0.00  0.78  0.00  0.00  0.37  0.00
  4                       1.00   1.00  0.00  0.00  0.00  0.00  0.00  0.00  0.00  0.00
  
  
  *************************
  Conduit Surcharge Summary
  *************************
  
  ----------------------------------------------------------------------------
                                                           Hours        Hours 
                         --------- Hours Full --------   Above Full   Capacity
  Conduit                Both Ends  Upstream  Dnstream   Normal Flow   Limited
  ----------------------------------------------------------------------------
  WS02006229WS02006228        0.72      0.77      0.72      4.79         0.72
  WS02006256WS02006235        5.71      5.71      7.54      4.31         0.01
  WS02006249WS02006248        0.01      0.01      0.01      5.42         0.01
  WS02006247WS02006245        0.01      0.01      0.01      5.43         0.01
  WS02006235WS02006234        0.01      0.01      0.01      5.73         0.01
  WS02006234WS02006232        0.01      0.01      0.25      0.01         0.01
  WS02006232WS02006231        0.01      0.01      0.25      0.01         0.01
  WS02006231WS02006230        0.01      0.01      0.01      5.72         0.01
  WS02006230WS02006229        1.24      3.36      1.24      5.81         1.24
  WS02006228WS02006109        0.74      0.91      0.74      5.57         0.74
  WS02006111WS02006112        0.01      0.01      5.33      0.01         0.01
  WS02006110WS02006113        0.01      0.01      0.82      0.01         0.01
  WS02006109WS02006110        0.01      0.01      0.91      0.01         0.01
  WS02004404WS02004405        0.01      0.01      0.01      5.59         0.01
  WS02003072WS02003073        0.01      0.01      0.01      5.34         0.01
  YS02001759YS02001757        3.67      3.67      5.02      0.01         0.01
  YS02001762YS02001759        2.15      2.15      3.67      0.01         0.01
  YS02001765YS02001762        0.21      0.21      2.15      0.01         0.01
  YS02001774YS02001770        0.01      0.01      1.33      0.01         0.01
  YS02001779YS02001774        0.01      0.01      1.33      0.01         0.01
  YS02001649YS02001757        2.50      2.50      5.02      0.01         0.01
  YS02001767YS02001765        0.01      0.01      0.21      0.01         0.01
  YS02163301YS02001633        0.01      0.01      0.08      0.01         0.01
  YS02163601YS02164001        0.04      0.04      2.28      0.01         0.01
  YS02164001YS02001641        0.04      0.04      0.50      0.01         0.01
  YS02001641YS02001644        0.48      0.50      0.82      0.01         0.12
  YS02001647YS02001649        0.01      0.01      2.50      0.01         0.01
  YS02001633YS02163601        0.01      0.01      2.28      0.01         0.01
  YS02001644YS02001647        0.01      0.01      0.82      0.01         0.01
  YS02001754YS02001757        0.01      0.01      5.02      0.01         0.01
  YS02001652YS02001649        0.01      0.01      2.50      0.01         0.01
  YS02001793JiankangQianchi        0.01      0.01      0.09      0.01         0.01
  YS02001757CaochengTiaoxuchi        0.01      0.01      5.02      0.01         0.01
  
  
  ***************
  Pumping Summary
  ***************
  
  ---------------------------------------------------------------------------------------------------------
                                                  Min       Avg       Max     Total     Power    % Time Off
                        Percent   Number of      Flow      Flow      Flow    Volume     Usage    Pump Curve
  Pump                 Utilized   Start-Ups       LPS       LPS       LPS  10^6 ltr     Kw-hr    Low   High
  ---------------------------------------------------------------------------------------------------------
  CC-Pump-1                0.00           0      0.00      0.00      0.00     0.000      0.00    0.0    0.0
  CC-Pump-2               70.37           1      0.00    198.25    200.00     3.933     13.70    0.0   35.0
  JK-Pump-1               53.18           7      0.00     99.56    284.73     1.095     21.58    0.0    0.0
  JK-Pump-2              100.00           2      0.00    135.72    300.00     2.959     57.38    0.0    0.0
  XR-Pump-1               87.22           8      0.00     64.48     95.00     1.625     21.02    0.0    0.0
  XR-Pump-2                0.00           0      0.00      0.00      0.00     0.000      0.00    0.0    0.0
  XR-Pump-3              100.00           2      0.00     89.49     95.00     2.508     30.96    0.0    0.0
  XR-Pump-4               97.88           2      0.00     92.04     95.00     2.508     30.10    0.0    0.0
  

  Analysis begun on:  Wed Jan  5 22:09:15 2022
  Analysis ended on:  Wed Jan  5 22:09:17 2022
  Total elapsed time: 00:00:02