
  EPA STORM WATER MANAGEMENT MODEL - VERSION 5.1 (Build 5.3.0.dev0)
  --------------------------------------------------------------

  WARNING 04: minimum elevation drop used for Conduit WS02004404WS02004405
  WARNING 03: negative offset ignored for Link YS02001904YS02001907
  
  *********************************************************
  NOTE: The summary statistics displayed in this report are
  based on results found at every computational time step,  
  not just on results from each reporting time step.
  *********************************************************
  
  ****************
  Analysis Options
  ****************
  Flow Units ............... LPS
  Process Models:
    Rainfall/Runoff ........ YES
    RDII ................... NO
    Snowmelt ............... NO
    Groundwater ............ NO
    Flow Routing ........... YES
    Ponding Allowed ........ NO
    Water Quality .......... NO
  Infiltration Method ...... HORTON
  Flow Routing Method ...... DYNWAVE
  Surcharge Method ......... EXTRAN
  Starting Date ............ 08/28/2015 08:00:00
  Ending Date .............. 08/28/2015 15:50:00
  Antecedent Dry Days ...... 8.0
  Report Time Step ......... 00:01:00
  Wet Time Step ............ 00:01:00
  Dry Time Step ............ 00:01:00
  Routing Time Step ........ 5.00 sec
  Variable Time Step ....... YES
  Maximum Trials ........... 8
  Number of Threads ........ 4
  Head Tolerance ........... 0.001500 m
  
  
  **************************        Volume         Depth
  Runoff Quantity Continuity     hectare-m            mm
  **************************     ---------       -------
  Total Precipitation ......         3.147         6.891
  Evaporation Loss .........         0.000         0.000
  Infiltration Loss ........         0.796         1.742
  Surface Runoff ...........         1.432         3.135
  Final Storage ............         0.920         2.015
  Continuity Error (%) .....        -0.018
  
  
  **************************        Volume        Volume
  Flow Routing Continuity        hectare-m      10^6 ltr
  **************************     ---------     ---------
  Dry Weather Inflow .......         0.616         6.165
  Wet Weather Inflow .......         1.431        14.311
  Groundwater Inflow .......         0.000         0.000
  RDII Inflow ..............         0.000         0.000
  External Inflow ..........         0.102         1.024
  External Outflow .........         1.702        17.022
  Flooding Loss ............         0.111         1.105
  Evaporation Loss .........         0.000         0.000
  Exfiltration Loss ........         0.000         0.000
  Initial Stored Volume ....         0.076         0.761
  Final Stored Volume ......         0.553         5.526
  Continuity Error (%) .....        -6.256
  
  
  *************************
  Highest Continuity Errors
  *************************
  Node JK-storage (-32.57%)
  Node YS02001774 (27.62%)
  Node HS02004842 (25.41%)
  Node YS02001884 (19.99%)
  Node YSB1171 (5.83%)
  
  
  ***************************
  Time-Step Critical Elements
  ***************************
  Link WS02006252WS02006251 (57.42%)
  Link 3 (37.07%)
  Link WS02006280WS02006229 (1.66%)
  
  
  ********************************
  Highest Flow Instability Indexes
  ********************************
  Link WS02006113WS02006111 (39)
  Link WS02006111WS02006112 (28)
  Link YS02001779YS02001774 (19)
  Link YS02001774YS02001770 (17)
  Link YS02006558YS02006561 (15)
  
  
  *************************
  Routing Time Step Summary
  *************************
  Minimum Time Step           :     0.50 sec
  Average Time Step           :     0.83 sec
  Maximum Time Step           :     5.00 sec
  Percent in Steady State     :    -0.00
  Average Iterations per Step :     3.97
  Percent Not Converging      :    23.43
  
  
  ***************************
  Subcatchment Runoff Summary
  ***************************
  
  ------------------------------------------------------------------------------------------------------------------------------
                            Total      Total      Total      Total     Imperv       Perv      Total       Total     Peak  Runoff
                           Precip      Runon       Evap      Infil     Runoff     Runoff     Runoff      Runoff   Runoff   Coeff
  Subcatchment                 mm         mm         mm         mm         mm         mm         mm    10^6 ltr      LPS
  ------------------------------------------------------------------------------------------------------------------------------
  sub0                       6.89       0.00       0.00       0.48       5.14       0.00       5.14        0.00     1.72   0.746
  sub1                       6.89       0.00       0.00       0.76       4.88       0.00       4.88        0.03     9.27   0.708
  sub2                       6.89       0.00       0.00       2.55       3.43       0.00       3.43        0.03     8.25   0.498
  sub3                       6.89       0.00       0.00       2.55       3.40       0.00       3.40        0.08    17.12   0.493
  sub4                       6.89       0.00       0.00       0.76       4.73       0.00       4.73        0.10    19.36   0.687
  sub5                       6.89       0.00       0.00       0.48       5.10       0.00       5.10        0.06    16.48   0.740
  sub7                       6.89       0.00       0.00       0.62       5.02       0.00       5.02        0.02     5.74   0.728
  sub8                       6.89       0.00       0.00       0.62       5.01       0.00       5.01        0.03    10.18   0.727
  sub9                       6.89       0.00       0.00       0.62       5.00       0.00       5.00        0.02     7.56   0.726
  sub10                      6.89       0.00       0.00       0.55       5.05       0.00       5.05        0.06    16.42   0.733
  sub11                      6.89       0.00       0.00       0.55       5.06       0.00       5.06        0.06    19.13   0.735
  sub12                      6.89       0.00       0.00       0.90       4.81       0.00       4.81        0.04    15.99   0.697
  sub14                      6.89       0.00       0.00       0.62       5.00       0.00       5.00        0.05    14.78   0.726
  sub15                      6.89       0.00       0.00       2.07       3.84       0.00       3.84        0.07    20.07   0.558
  sub16                      6.89       0.00       0.00       2.27       3.70       0.00       3.70        0.04    14.12   0.537
  sub17                      6.89       0.00       0.00       2.20       3.75       0.00       3.75        0.03    11.42   0.544
  sub22                      6.89       0.00       0.00       2.96       3.14       0.00       3.14        0.20    65.39   0.456
  sub23                      6.89       0.00       0.00       2.55       3.47       0.00       3.47        0.17    55.59   0.504
  sub60                      6.89       0.00       0.00       0.83       3.52       0.00       3.52        1.07   103.27   0.511
  sub61                      6.89       0.00       0.00       1.17       3.72       0.00       3.72        1.15   128.06   0.540
  sub62                      6.89       0.00       0.00       0.55       4.00       0.00       4.00        1.23   131.31   0.581
  sub63                      6.89       0.00       0.00       2.00       3.30       0.00       3.30        1.00   118.97   0.479
  sub64                      6.89       0.00       0.00       1.03       3.37       0.00       3.37        1.02    98.15   0.488
  sub65                      6.89       0.00       0.00       0.90       3.41       0.00       3.41        1.05    99.66   0.495
  sub66                      6.89       0.00       0.00       2.00       2.93       0.00       2.93        0.90    89.65   0.425
  sub67                      6.89       0.00       0.00       0.55       4.36       0.00       4.36        1.35   166.79   0.633
  sub68                      6.89       0.00       0.00       0.96       3.95       0.00       3.95        1.21   141.17   0.573
  sub69                      6.89       0.00       0.00       1.03       4.22       0.00       4.22        0.99   138.50   0.612
  sub70                      6.89       4.31       0.00       3.81       5.29       0.00       5.29        1.21   116.43   0.473
  sub71                      6.89       0.00       0.00       0.55       3.84       0.00       3.84        0.91    92.03   0.558
  sub72                      6.89       0.00       0.00       0.48       2.78       0.00       2.78        0.57    44.19   0.404
  sub73                      6.89       5.15       0.00       4.09       5.48       0.00       5.48        1.29   100.82   0.455
  sub74                      6.89       0.00       0.00       5.17       1.27       0.00       1.27        0.51    76.91   0.184
  
  
  ******************
  Node Depth Summary
  ******************
  
  ---------------------------------------------------------------------------------
                                 Average  Maximum  Maximum  Time of Max    Reported
                                   Depth    Depth      HGL   Occurrence   Max Depth
  Node                 Type       Meters   Meters   Meters  days hr:min      Meters
  ---------------------------------------------------------------------------------
  WS02001211           JUNCTION     0.64     0.71     5.55     0  02:51        0.71
  WS02001212           JUNCTION     0.37     0.43     5.50     0  02:51        0.43
  WS02001213           JUNCTION     0.60     0.69     5.45     0  02:51        0.69
  WS02003069           JUNCTION     0.43     0.53     5.12     0  02:53        0.53
  WS02003072           JUNCTION     0.49     0.59     4.97     0  02:53        0.59
  WS02003073           JUNCTION     0.30     0.36     4.43     0  02:54        0.36
  WS02003060           JUNCTION     0.38     0.47     5.40     0  02:52        0.47
  WS02003066           JUNCTION     0.23     0.30     5.85     0  02:35        0.30
  WS02003059           JUNCTION     0.66     0.75     5.44     0  02:52        0.75
  WS02003067           JUNCTION     0.58     0.70     6.02     0  02:35        0.70
  WS02004401           JUNCTION     0.67     0.86     6.86     0  02:31        0.86
  WS02004402           JUNCTION     0.70     0.89     6.85     0  02:32        0.89
  WS02004403           JUNCTION     0.72     0.90     6.83     0  02:32        0.90
  WS02004404           JUNCTION     0.80     0.97     6.82     0  02:32        0.97
  WS02004406           JUNCTION     0.81     0.96     6.79     0  02:32        0.96
  WS02004409           JUNCTION     0.49     0.67     6.44     0  02:34        0.67
  WS02004410           JUNCTION     0.51     0.69     6.41     0  02:34        0.69
  WS02004411           JUNCTION     0.53     0.70     6.38     0  02:34        0.70
  WS02004412           JUNCTION     0.54     0.70     6.34     0  02:35        0.70
  WS02004413           JUNCTION     0.70     0.86     6.33     0  02:35        0.86
  WS02004405           JUNCTION     0.80     0.96     6.81     0  02:32        0.96
  WS02006109           JUNCTION     0.75     0.98     7.60     0  02:29        0.98
  WS02006110           JUNCTION     0.75     0.93     7.51     0  02:29        0.93
  WS02006111           JUNCTION     0.22     0.29     7.00     0  02:29        0.29
  WS02006112           JUNCTION     0.84     1.06     6.94     0  02:36        1.05
  WS02006113           JUNCTION     0.34     0.46     7.35     0  02:29        0.46
  WS02006115           JUNCTION     0.56     0.76     6.90     0  02:31        0.76
  WS02006116           JUNCTION     0.65     0.84     6.88     0  02:31        0.84
  WS02006230           JUNCTION     0.71     1.02     7.77     0  02:30        1.02
  WS02006231           JUNCTION     0.47     0.69     7.81     0  02:30        0.69
  WS02006232           JUNCTION     0.61     0.81     7.85     0  02:30        0.81
  WS02006234           JUNCTION     0.53     0.74     7.90     0  02:31        0.74
  WS02006235           JUNCTION     0.56     0.77     7.93     0  02:31        0.77
  WS02006238           JUNCTION     0.58     0.79     7.94     0  02:31        0.79
  WS02006240           JUNCTION     0.47     0.69     7.99     0  02:32        0.69
  WS02006242           JUNCTION     0.53     0.75     8.02     0  02:33        0.75
  WS02006243           JUNCTION     0.40     0.62     8.04     0  02:33        0.62
  WS02006245           JUNCTION     0.38     0.58     8.06     0  02:33        0.58
  WS02006247           JUNCTION     0.40     0.58     8.08     0  02:33        0.58
  WS02006248           JUNCTION     0.35     0.51     8.10     0  02:33        0.51
  WS02006249           JUNCTION     0.38     0.52     8.12     0  02:33        0.52
  WS02006239           JUNCTION     0.54     0.76     7.96     0  02:32        0.76
  WS02006251           JUNCTION     0.37     0.49     8.16     0  02:33        0.49
  WS02006252           JUNCTION     0.31     0.35     8.59     0  02:17        0.35
  WS02006253           JUNCTION     0.39     0.52     8.16     0  02:33        0.52
  WS02006256           JUNCTION     1.05     1.21     8.14     0  02:32        1.21
  WS02004138           JUNCTION     0.15     0.17     7.42     0  03:33        0.17
  WS02004407           JUNCTION     0.22     0.30     6.61     0  02:32        0.30
  WS02006228           JUNCTION     0.75     1.02     7.67     0  02:28        1.02
  WS02006229           JUNCTION     0.72     1.02     7.71     0  02:29        1.02
  WS02006280           JUNCTION     0.06     0.16     8.43     0  02:17        0.16
  WS02006284           JUNCTION     0.35     0.50     8.90     0  02:16        0.50
  WS02006287           JUNCTION     0.08     0.24     9.19     0  02:16        0.24
  WSF200               JUNCTION     0.22     0.31     5.54     0  02:36        0.31
  HS02004901           JUNCTION     0.11     0.25    10.07     0  02:14        0.25
  HS02004881           JUNCTION     0.01     0.03     9.06     0  02:16        0.03
  HS02004876           JUNCTION     0.04     0.11     9.14     0  02:13        0.11
  HS02004870           JUNCTION     0.01     0.05     9.33     0  02:17        0.05
  HS02004862           JUNCTION     0.02     0.05     9.44     0  02:18        0.05
  HS02004856           JUNCTION     0.08     0.11     9.54     0  02:17        0.11
  HS02004852           JUNCTION     0.01     0.03     9.54     0  02:18        0.03
  HS02004848           JUNCTION     0.01     0.03     9.63     0  02:17        0.03
  HS02004842           JUNCTION     0.33     0.36     9.63     0  02:17        0.36
  HS02004837           JUNCTION     0.03     0.05     9.63     0  02:17        0.05
  HS02004830           JUNCTION     0.04     0.07     9.54     0  02:17        0.07
  HS02004824           JUNCTION     0.02     0.04     9.45     0  02:20        0.04
  HS02004817           JUNCTION     0.43     0.54     9.39     0  02:17        0.54
  HS02004807           JUNCTION     0.12     0.22     9.39     0  02:17        0.22
  HS02004802           JUNCTION     0.15     0.26     9.38     0  02:17        0.26
  HS02004799           JUNCTION     0.11     0.28     9.50     0  02:14        0.28
  HS02004792           JUNCTION     0.03     0.11     9.64     0  02:14        0.11
  HS02004788           JUNCTION     0.02     0.08     9.98     0  02:15        0.08
  HS02004785           JUNCTION     0.04     0.15    10.05     0  02:14        0.15
  HS02004777           JUNCTION     0.14     0.27    10.07     0  02:14        0.27
  HS02004770           JUNCTION     0.11     0.24    10.07     0  02:14        0.24
  HS02004480           JUNCTION     0.07     0.22     9.46     0  02:15        0.22
  HS02004479           JUNCTION     0.11     0.26     9.46     0  02:15        0.26
  HS02004478           JUNCTION     0.05     0.14     9.37     0  02:16        0.14
  YS02001745           JUNCTION     0.39     0.65     8.17     0  05:10        0.64
  YS02001748           JUNCTION     0.77     1.20     8.28     0  05:07        1.08
  YS02001751           JUNCTION     0.95     1.92     8.80     0  03:47        1.27
  YS02001754           JUNCTION     1.20     1.94     8.54     0  03:47        1.55
  YS02001762           JUNCTION     1.40     1.78     8.18     0  05:45        1.77
  YS02001765           JUNCTION     1.35     1.74     8.19     0  05:45        1.73
  YS02001767           JUNCTION     1.31     1.70     8.19     0  05:45        1.70
  YS02001770           JUNCTION     1.31     1.78     8.27     0  03:29        1.70
  YS02001774           JUNCTION     1.38     1.88     8.31     0  03:29        1.77
  YS02001779           JUNCTION     1.13     1.64     8.33     0  03:29        1.51
  YS02001882           JUNCTION     0.32     0.53     7.25     0  02:52        0.53
  YS02001884           JUNCTION     0.41     0.63     7.25     0  02:53        0.63
  YS02001759           JUNCTION     1.43     1.82     8.18     0  05:28        1.80
  YS02001887           JUNCTION     0.49     0.71     7.25     0  02:53        0.71
  YS02001890           JUNCTION     0.52     0.74     7.25     0  02:52        0.74
  YS02001898           JUNCTION     0.29     0.50     7.23     0  02:52        0.50
  YS02001901           JUNCTION     0.41     0.62     7.23     0  02:51        0.62
  YS02001904           JUNCTION     0.39     0.60     7.23     0  02:56        0.60
  YS02001907           JUNCTION     0.72     0.94     7.23     0  02:56        0.94
  YS02001910           JUNCTION     0.51     0.72     7.23     0  02:51        0.72
  YS02001915           JUNCTION     0.31     0.51     7.23     0  02:50        0.51
  YS02001918           JUNCTION     0.09     0.16     7.23     0  02:50        0.16
  YS02001619           JUNCTION     0.91     1.49     8.42     0  05:16        1.39
  YS02001629           JUNCTION     1.26     1.84     8.39     0  05:16        1.74
  YS02001641           JUNCTION     1.36     1.89     8.33     0  05:16        1.78
  YS02001644           JUNCTION     1.37     1.87     8.30     0  05:16        1.76
  YS02001652           JUNCTION     1.21     2.00     8.60     0  03:36        1.60
  YS02001655           JUNCTION     0.98     2.10     8.95     0  03:36        1.37
  YS02001920           JUNCTION     0.19     0.24     7.25     0  02:58        0.24
  YS02001923           JUNCTION     0.07     0.10     7.36     0  03:01        0.10
  YS02001926           JUNCTION     0.15     0.20     7.64     0  03:01        0.20
  YS02001929           JUNCTION     0.07     0.10     7.79     0  03:01        0.10
  YS02001658           JUNCTION     0.71     1.26     8.41     0  05:19        1.10
  YS02001661           JUNCTION     0.49     0.74     8.14     0  05:55        0.74
  YS02001664           JUNCTION     0.13     0.25     8.18     0  05:26        0.25
  YS02001622           JUNCTION     0.93     1.51     8.41     0  05:16        1.41
  YS02001633           JUNCTION     1.35     1.92     8.38     0  05:16        1.81
  YS02001649           JUNCTION     1.40     1.83     8.22     0  03:36        1.78
  YS02001757           JUNCTION     1.53     1.92     8.18     0  05:28        1.90
  YS02001895           JUNCTION     0.28     0.49     7.24     0  02:52        0.49
  YS02001625           JUNCTION     1.21     1.78     8.38     0  05:16        1.70
  YS02163301           JUNCTION     1.29     1.87     8.39     0  05:16        1.76
  YS02163601           JUNCTION     1.40     1.96     8.36     0  05:16        1.84
  YS02164001           JUNCTION     1.34     1.89     8.35     0  05:16        1.77
  YS02001647           JUNCTION     1.20     1.65     8.26     0  05:16        1.56
  YSB1154              JUNCTION     0.24     0.41     9.47     0  02:15        0.41
  YSB6556              JUNCTION     0.14     0.30     9.47     0  02:15        0.30
  YSB1174              JUNCTION     0.20     0.36     9.47     0  02:15        0.36
  YSB1171              JUNCTION     0.39     0.56     9.47     0  02:15        0.56
  YS02006553           JUNCTION     0.72     0.94     7.23     0  02:55        0.94
  YS02006561           JUNCTION     0.16     0.27     6.93     0  02:55        0.27
  YS02006556           JUNCTION     0.69     0.91     7.22     0  02:55        0.91
  YS02006558           JUNCTION     0.74     0.95     7.22     0  02:55        0.95
  YS02001783           JUNCTION     0.28     0.48     6.62     0  02:55        0.48
  YS02001784           JUNCTION     0.31     0.50     6.57     0  02:55        0.50
  YS02001786           JUNCTION     0.26     0.42     6.45     0  02:55        0.42
  YS02001788           JUNCTION     0.19     0.32     6.30     0  02:55        0.32
  YS02001790           JUNCTION     0.23     0.39     6.04     0  02:55        0.39
  YS02001791           JUNCTION     0.15     0.25     5.72     0  02:59        0.25
  YS02001793           JUNCTION     0.10     0.16     5.00     0  02:55        0.16
  WS02004139           JUNCTION     0.58     0.65     5.56     0  02:50        0.65
  WSC                  OUTFALL      0.29     0.36     1.03     0  02:54        0.36
  3                    OUTFALL      0.09     0.21     6.21     0  02:32        0.21
  4                    OUTFALL      0.00     0.02     7.02     0  02:33        0.02
  5                    OUTFALL      0.00     0.00     5.00     0  00:00        0.00
  JK-storage           STORAGE      0.22     3.10     3.90     0  03:35        3.10
  CC-storage           STORAGE      0.77     1.11     8.11     0  05:53        1.11
  XR-storage           STORAGE      7.46     7.72     5.72     0  02:35        7.72
  
  
  *******************
  Node Inflow Summary
  *******************
  
  -------------------------------------------------------------------------------------------------
                                  Maximum  Maximum                  Lateral       Total        Flow
                                  Lateral    Total  Time of Max      Inflow      Inflow     Balance
                                   Inflow   Inflow   Occurrence      Volume      Volume       Error
  Node                 Type           LPS      LPS  days hr:min    10^6 ltr    10^6 ltr     Percent
  -------------------------------------------------------------------------------------------------
  WS02001211           JUNCTION      7.35   293.19     0  03:39       0.207        6.22       0.623
  WS02001212           JUNCTION      0.00   293.77     0  03:39           0        6.18       0.323
  WS02001213           JUNCTION      0.00   294.16     0  03:38           0        6.16       0.385
  WS02003069           JUNCTION      0.32   804.69     0  02:52     0.00902        13.6       0.222
  WS02003072           JUNCTION      0.00   804.14     0  02:53           0        13.6       0.271
  WS02003073           JUNCTION      1.82   805.67     0  02:53      0.0514        13.6       0.307
  WS02003060           JUNCTION     16.53   804.68     0  02:52       0.466        13.7       0.211
  WS02003066           JUNCTION      0.00   547.93     0  02:35           0         7.1       0.061
  WS02003059           JUNCTION      0.00   295.06     0  03:38           0        6.14       0.672
  WS02003067           JUNCTION      0.00   547.91     0  02:35           0        7.11       0.129
  WS02004401           JUNCTION      0.00   550.43     0  02:31           0        7.33       0.287
  WS02004402           JUNCTION      0.00   550.15     0  02:31           0        7.31       0.271
  WS02004403           JUNCTION      0.00   549.95     0  02:32           0        7.29       0.247
  WS02004404           JUNCTION      0.16   550.06     0  02:32     0.00457        7.28       0.187
  WS02004406           JUNCTION      0.00   550.06     0  02:32           0        7.25       0.456
  WS02004409           JUNCTION      0.00   549.94     0  02:32           0        7.21       0.219
  WS02004410           JUNCTION      0.00   548.95     0  02:33           0        7.19       0.248
  WS02004411           JUNCTION      0.00   548.30     0  02:33           0        7.17       0.256
  WS02004412           JUNCTION      0.00   548.02     0  02:34           0        7.16       0.277
  WS02004413           JUNCTION      0.00   547.95     0  02:35           0        7.14       0.412
  WS02004405           JUNCTION      0.04   550.06     0  02:32     0.00107        7.27       0.279
  WS02006109           JUNCTION      1.23   544.66     0  02:29      0.0347        7.42       0.293
  WS02006110           JUNCTION      0.00   544.66     0  02:29           0         7.4       0.262
  WS02006111           JUNCTION      0.00   566.93     0  02:29           0        7.37       0.059
  WS02006112           JUNCTION     11.42   555.65     0  02:28      0.0322         7.4       0.390
  WS02006113           JUNCTION      0.00   544.89     0  02:29           0        7.38       0.126
  WS02006115           JUNCTION      0.00   554.77     0  02:30           0        7.37       0.265
  WS02006116           JUNCTION      0.00   551.13     0  02:31           0        7.35       0.252
  WS02006230           JUNCTION     10.28   349.14     0  02:50        0.29        6.37       0.226
  WS02006231           JUNCTION      0.00   338.03     0  02:50           0        6.09       0.146
  WS02006232           JUNCTION      0.00   337.98     0  02:50           0         6.1       0.259
  WS02006234           JUNCTION      0.00   337.43     0  02:49           0        6.11       0.121
  WS02006235           JUNCTION      0.00   337.20     0  02:50           0        6.15       0.173
  WS02006238           JUNCTION      0.00   240.68     0  03:30           0        4.05       0.185
  WS02006240           JUNCTION      0.00   238.59     0  02:40           0        4.03       0.281
  WS02006242           JUNCTION      0.00   238.18     0  02:38           0        4.04       0.345
  WS02006243           JUNCTION      0.00   237.09     0  02:40           0        4.03       0.129
  WS02006245           JUNCTION      0.00   241.40     0  02:22           0        4.04       0.208
  WS02006247           JUNCTION      0.00   244.35     0  02:22           0        4.05       0.167
  WS02006248           JUNCTION      0.00   246.07     0  02:22           0        4.05       0.104
  WS02006249           JUNCTION      0.00   247.80     0  02:21           0        4.06       0.247
  WS02006239           JUNCTION      0.00   239.23     0  02:41           0        4.04       0.275
  WS02006251           JUNCTION      0.08   249.75     0  02:18     0.00217        4.07       0.215
  WS02006252           JUNCTION      0.00   200.00     0  02:17           0        3.89       0.011
  WS02006253           JUNCTION      1.72    52.05     0  02:16     0.00416       0.184       2.009
  WS02006256           JUNCTION      0.00   600.00     0  02:21           0        5.59       0.053
  WS02004138           JUNCTION      0.00   285.00     0  03:30           0        6.04       0.065
  WS02004407           JUNCTION      0.00   550.00     0  02:32           0        7.21       0.099
  WS02006228           JUNCTION      0.00   543.44     0  02:29           0         7.4       0.199
  WS02006229           JUNCTION      0.00   543.40     0  02:29           0        7.42       0.171
  WS02006280           JUNCTION      0.00   261.70     0  02:17           0        1.06       0.006
  WS02006284           JUNCTION      0.10   261.70     0  02:16      0.0027        1.06       0.103
  WS02006287           JUNCTION      0.00   261.58     0  02:16           0        1.06       0.068
  WSF200               JUNCTION      0.00   547.93     0  02:35           0        7.09       0.056
  HS02004901           JUNCTION     14.12    14.12     0  02:09      0.0387      0.0388       4.739
  HS02004881           JUNCTION      5.74    50.69     0  02:16      0.0169       0.179       0.199
  HS02004876           JUNCTION      9.27    45.23     0  02:16      0.0324       0.163       0.328
  HS02004870           JUNCTION     10.18    36.13     0  02:16       0.032        0.13       0.082
  HS02004862           JUNCTION      8.45    26.57     0  02:17      0.0376      0.0985       0.173
  HS02004856           JUNCTION      7.56    18.17     0  02:16      0.0241      0.0623       2.371
  HS02004852           JUNCTION      0.00    11.06     0  02:17           0      0.0383       0.136
  HS02004848           JUNCTION     17.12    17.12     0  02:20      0.0765      0.0765       0.058
  HS02004842           JUNCTION      0.00     6.65     0  02:29           0      0.0512      34.058
  HS02004837           JUNCTION     22.77    28.31     0  02:16       0.235       0.273       0.298
  HS02004830           JUNCTION      0.15    28.44     0  02:17     0.00423       0.263       0.471
  HS02004824           JUNCTION     19.41    47.61     0  02:20         0.1       0.362       0.149
  HS02004817           JUNCTION      0.60    48.20     0  02:20      0.0169       0.378       4.606
  HS02004807           JUNCTION     19.13    65.70     0  02:18      0.0588       0.421       1.015
  HS02004802           JUNCTION      0.00    66.13     0  02:19           0       0.416       0.984
  HS02004799           JUNCTION     14.78   167.10     0  02:14      0.0476       0.565       0.406
  HS02004792           JUNCTION     65.67   152.53     0  02:13       0.206       0.517       0.079
  HS02004788           JUNCTION     21.74    88.72     0  02:14       0.113       0.313       0.126
  HS02004785           JUNCTION      0.15    67.26     0  02:14     0.00423       0.201       0.241
  HS02004777           JUNCTION      0.03    67.54     0  02:12    0.000846       0.202       2.635
  HS02004770           JUNCTION     55.59    68.62     0  02:11       0.165       0.203       1.553
  HS02004480           JUNCTION      0.00   197.17     0  02:15           0       0.661       0.114
  HS02004479           JUNCTION      0.00    30.69     0  02:16           0       0.109       0.674
  HS02004478           JUNCTION      0.00   261.56     0  02:16           0        1.06       0.057
  YS02001745           JUNCTION    103.27   204.95     0  04:44        1.07         1.2       0.543
  YS02001748           JUNCTION      0.04   354.68     0  03:28     0.00127        1.24       1.542
  YS02001751           JUNCTION      0.01   379.49     0  03:30     0.00031        1.08       2.055
  YS02001754           JUNCTION      0.26   172.19     0  03:24     0.00733        1.03       2.324
  YS02001762           JUNCTION      0.00   150.24     0  02:53           0        1.16       1.823
  YS02001765           JUNCTION      0.00   149.17     0  02:53           0        1.16       2.122
  YS02001767           JUNCTION      0.54   145.20     0  02:51      0.0151        1.18       3.099
  YS02001770           JUNCTION    131.47   162.55     0  02:37        1.23        1.26       2.595
  YS02001774           JUNCTION      0.00    49.63     0  02:14           0      0.0899      38.156
  YS02001779           JUNCTION      0.01    48.46     0  03:29    0.000141      0.0396      63.176
  YS02001882           JUNCTION      0.00     4.88     0  02:07           0     0.00649      38.212
  YS02001884           JUNCTION      0.00    13.66     0  02:10           0      0.0257      24.977
  YS02001759           JUNCTION    128.10   278.21     0  02:53        1.15        2.27       1.013
  YS02001887           JUNCTION    167.24   167.24     0  02:42        1.36        1.37       0.545
  YS02001890           JUNCTION      0.00   167.09     0  02:47           0        1.34       0.609
  YS02001898           JUNCTION      0.00   166.79     0  02:46           0        1.33       0.182
  YS02001901           JUNCTION      0.00   166.44     0  02:46           0        1.33       0.437
  YS02001904           JUNCTION      0.00   166.05     0  02:47           0        1.33       0.406
  YS02001907           JUNCTION      0.00   306.10     0  02:58           0        2.86       0.791
  YS02001910           JUNCTION      0.00   142.31     0  03:02           0        1.55       0.682
  YS02001915           JUNCTION     92.05   140.59     0  03:03       0.908        1.55       0.315
  YS02001918           JUNCTION      0.00    47.91     0  03:03           0       0.645       0.200
  YS02001619           JUNCTION     89.65    89.65     0  02:59       0.897       0.897       1.426
  YS02001629           JUNCTION      0.00   165.77     0  03:34           0       0.824       3.722
  YS02001641           JUNCTION      0.00   197.21     0  02:49           0        1.77       1.198
  YS02001644           JUNCTION     98.19   294.28     0  02:55        1.02        2.76       0.950
  YS02001652           JUNCTION      0.00   170.91     0  02:49           0       0.951       2.234
  YS02001655           JUNCTION      0.15   361.82     0  03:35     0.00434        1.01       2.316
  YS02001920           JUNCTION      2.87    47.04     0  03:01      0.0809       0.647       0.347
  YS02001923           JUNCTION      0.04    44.17     0  03:01     0.00106       0.566       0.062
  YS02001926           JUNCTION      0.05    44.22     0  03:01     0.00147       0.568       0.431
  YS02001929           JUNCTION     44.19    44.19     0  03:01       0.567       0.567       0.060
  YS02001658           JUNCTION      0.00   361.07     0  03:36           0        1.19       1.623
  YS02001661           JUNCTION      0.00   245.16     0  04:14           0        1.32       0.966
  YS02001664           JUNCTION    118.97   118.97     0  02:45       0.998        1.15       0.108
  YS02001622           JUNCTION      0.00   122.32     0  03:49           0       0.892       3.705
  YS02001633           JUNCTION     99.86   203.62     0  02:49        1.05        1.83       1.773
  YS02001649           JUNCTION      0.00   425.75     0  02:49           0        3.62       1.030
  YS02001757           JUNCTION      0.00   760.76     0  02:55           0         6.8       1.373
  YS02001895           JUNCTION      0.00   166.80     0  02:46           0        1.33       0.299
  YS02001625           JUNCTION      0.00   165.64     0  03:34           0       0.867       4.717
  YS02163301           JUNCTION      0.00   104.43     0  02:49           0         0.8       3.070
  YS02163601           JUNCTION      0.11   202.12     0  02:49      0.0031        1.79       1.706
  YS02164001           JUNCTION      0.00   201.07     0  02:49           0        1.77       1.138
  YS02001647           JUNCTION      0.00   293.48     0  02:55           0        2.72       0.964
  YSB1154              JUNCTION     16.48    16.48     0  02:14      0.0577       0.059       2.509
  YSB6556              JUNCTION      0.00    16.51     0  02:15           0      0.0599       2.126
  YSB1174              JUNCTION     15.99    15.99     0  02:08       0.042      0.0429       3.083
  YSB1171              JUNCTION      0.00    30.60     0  02:14           0       0.108       6.195
  YS02006553           JUNCTION      0.00   306.19     0  02:59           0        2.85       0.512
  YS02006561           JUNCTION      0.00   471.87     0  02:55           0        4.04       0.006
  YS02006556           JUNCTION      0.00   307.09     0  03:02           0        2.86       0.371
  YS02006558           JUNCTION    142.05   450.82     0  02:58        1.24        4.07       0.126
  YS02001783           JUNCTION      0.00   446.21     0  02:55           0        4.04       0.042
  YS02001784           JUNCTION      1.06   446.10     0  02:55      0.0299        4.07       0.068
  YS02001786           JUNCTION      0.06   445.61     0  02:55     0.00159        4.06       0.066
  YS02001788           JUNCTION      0.07   445.66     0  02:55       0.002        4.06       0.038
  YS02001790           JUNCTION      0.15   445.81     0  02:55     0.00437        4.07       0.048
  YS02001791           JUNCTION      0.00   445.75     0  02:55           0        4.06       0.024
  YS02001793           JUNCTION      0.00   445.52     0  02:55           0        4.06       0.008
  WS02004139           JUNCTION      0.32   285.32     0  03:33     0.00905        6.05       0.608
  WSC                  OUTFALL       0.00   805.08     0  02:54           0        13.6       0.000
  3                    OUTFALL       0.00   509.63     0  02:32           0        3.45       0.000
  4                    OUTFALL       0.00     5.04     0  02:33           0     0.00257       0.000
  5                    OUTFALL       0.00     0.00     0  00:00           0           0       0.000 ltr
  JK-storage           STORAGE       0.00   448.31     0  02:56           0        4.21     -24.566
  CC-storage           STORAGE       0.00   761.07     0  02:55           0        6.71       0.827
  XR-storage           STORAGE     366.60   366.60     0  02:56        7.43        8.03      -0.001
  
  
  **********************
  Node Surcharge Summary
  **********************
  
  Surcharging occurs when water rises above the top of the highest conduit.
  ---------------------------------------------------------------------
                                               Max. Height   Min. Depth
                                   Hours       Above Crown    Below Rim
  Node                 Type      Surcharged         Meters       Meters
  ---------------------------------------------------------------------
  WS02006109           JUNCTION        1.07          0.159        1.661
  WS02006110           JUNCTION        0.28          0.018        1.832
  WS02006112           JUNCTION        0.51          0.062        1.618
  WS02006232           JUNCTION        0.84          0.110        1.370
  WS02006234           JUNCTION        0.25          0.022        1.218
  WS02006235           JUNCTION        0.47          0.060        1.230
  WS02006238           JUNCTION        0.54          0.075        1.355
  WS02006242           JUNCTION        0.20          0.017        0.803
  WS02006239           JUNCTION        0.21          0.015        1.275
  WS02006228           JUNCTION        1.05          0.189        2.011
  YS02001748           JUNCTION        0.02          0.118        1.072
  YS02001751           JUNCTION        3.92          0.924        0.276
  YS02001754           JUNCTION        4.50          0.885        0.265
  YS02001762           JUNCTION        5.35          0.782        0.368
  YS02001765           JUNCTION        5.32          0.736        0.364
  YS02001767           JUNCTION        5.28          0.702        0.328
  YS02001770           JUNCTION        5.22          0.747        0.173
  YS02001774           JUNCTION        5.34          0.883        0.167
  YS02001779           JUNCTION        4.34          0.639        0.041
  YS02001759           JUNCTION        5.38          0.817        0.393
  YS02001619           JUNCTION        3.75          0.492        0.118
  YS02001629           JUNCTION        3.81          0.460        0.010
  YS02001641           JUNCTION        5.33          0.894        0.206
  YS02001644           JUNCTION        5.33          0.867        0.053
  YS02001652           JUNCTION        4.84          0.974        0.156
  YS02001655           JUNCTION        4.04          1.098        0.102
  YS02001658           JUNCTION        0.16          0.264        1.036
  YS02001622           JUNCTION        3.88          0.509        0.111
  YS02001633           JUNCTION        5.30          0.904        0.156
  YS02001649           JUNCTION        5.36          0.831        0.219
  YS02001757           JUNCTION        5.46          0.918        0.292
  YS02001625           JUNCTION        5.06          0.780        0.000
  YS02163301           JUNCTION        5.26          0.868        0.162
  YS02163601           JUNCTION        5.36          0.965        0.115
  YS02164001           JUNCTION        5.32          0.892        0.208
  YS02001647           JUNCTION        4.97          0.646        0.254
  
  
  *********************
  Node Flooding Summary
  *********************
  
  Flooding refers to all water that overflows a node, whether it ponds or not.
  --------------------------------------------------------------------------
                                                             Total   Maximum
                                 Maximum   Time of Max       Flood    Ponded
                        Hours       Rate    Occurrence      Volume     Depth
  Node                 Flooded       LPS   days hr:min    10^6 ltr    Meters
  --------------------------------------------------------------------------
  YS02001625              0.01      5.41      0  05:16       0.000     0.000
  XR-storage              3.06    271.47      0  03:00       1.105     0.000
  
  
  **********************
  Storage Volume Summary
  **********************
  
  --------------------------------------------------------------------------------------------------
                         Average     Avg  Evap Exfil       Maximum     Max    Time of Max    Maximum
                          Volume    Pcnt  Pcnt  Pcnt        Volume    Pcnt     Occurrence    Outflow
  Storage Unit           1000 m3    Full  Loss  Loss       1000 m3    Full    days hr:min        LPS
  --------------------------------------------------------------------------------------------------
  JK-storage               0.011       4     0     0         0.156      53       0  03:35     600.00
  CC-storage               2.137      14     0     0         3.106      20       0  05:53     200.00
  XR-storage               0.895      97     0     0         0.926     100       0  02:35     285.00
  
  
  ***********************
  Outfall Loading Summary
  ***********************
  
  -----------------------------------------------------------
                         Flow       Avg       Max       Total
                         Freq      Flow      Flow      Volume
  Outfall Node           Pcnt       LPS       LPS    10^6 ltr
  -----------------------------------------------------------
  WSC                   99.99    562.88    805.08      13.573
  3                     82.78    205.42    509.63       3.446
  4                      5.62      2.50      5.04       0.003
  5                      0.00      0.00      0.00       0.000
  -----------------------------------------------------------
  System                47.10    770.80   1277.03      17.021
  
  
  ********************
  Link Flow Summary
  ********************
  
  -----------------------------------------------------------------------------
                                 Maximum  Time of Max   Maximum    Max/    Max/
                                  |Flow|   Occurrence   |Veloc|    Full    Full
  Link                 Type          LPS  days hr:min     m/sec    Flow   Depth
  -----------------------------------------------------------------------------
  WS02003066WSF200     CONDUIT    547.93     0  02:35      2.75    0.09    0.23
  WS02006287WS02006284 CONDUIT    261.60     0  02:16      1.76    0.12    0.24
  WS02006284WS02006280 CONDUIT    261.70     0  02:17      2.00    0.11    0.22
  WS02006280WS02006229 CONDUIT    261.71     0  02:17      3.22    0.06    0.16
  WS02006229WS02006228 CONDUIT    543.44     0  02:29      1.08    1.80    1.00
  WS02006256WS02006235 CONDUIT    166.25     0  00:01      2.58    1.76    1.00
  WS02006253WS02006251 CONDUIT     51.58     0  02:14      0.53    0.15    0.71
  WS02006252WS02006251 CONDUIT    200.68     0  02:17      1.97    0.74    0.76
  WS02006251WS02006249 CONDUIT    247.80     0  02:21      1.00    0.71    0.72
  WS02006249WS02006248 CONDUIT    246.07     0  02:22      1.08    1.35    0.72
  WS02006248WS02006247 CONDUIT    244.35     0  02:22      1.04    0.53    0.77
  WS02006247WS02006245 CONDUIT    241.40     0  02:22      0.99    1.91    0.82
  WS02006245WS02006243 CONDUIT    237.09     0  02:40      1.02    0.70    0.85
  WS02006243WS02006242 CONDUIT    238.18     0  02:38      0.82    0.51    0.94
  WS02006242WS02006240 CONDUIT    238.59     0  02:40      0.77    0.95    0.99
  WS02006240WS02006239 CONDUIT    239.23     0  02:41      0.84    0.75    1.00
  WS02006239WS02006238 CONDUIT    240.68     0  03:30      0.77    0.77    1.00
  WS02006238WS02006235 CONDUIT    245.78     0  03:30      1.25    0.55    1.00
  WS02006235WS02006234 CONDUIT    337.43     0  02:49      0.95    3.56    1.00
  WS02006234WS02006232 CONDUIT    337.98     0  02:50      1.13    0.68    1.00
  WS02006232WS02006231 CONDUIT    338.03     0  02:50      0.95    0.71    0.98
  WS02006231WS02006230 CONDUIT    338.86     0  02:50      1.29    5.14    0.95
  WS02006230WS02006229 CONDUIT    350.30     0  02:51      0.91    7.80    1.00
  WS02006228WS02006109 CONDUIT    543.43     0  02:29      1.08    2.37    1.00
  WS02006116WS02004401 CONDUIT    550.43     0  02:31      0.77    0.76    0.85
  WS02006115WS02006116 CONDUIT    551.13     0  02:31      0.86    0.71    0.77
  WS02006113WS02006111 CONDUIT    566.93     0  02:29      2.47    0.68    0.47
  WS02006112WS02006115 CONDUIT    554.77     0  02:30      0.76    0.33    0.88
  WS02006111WS02006112 CONDUIT    548.59     0  02:29      1.52    0.26    0.67
  WS02006110WS02006113 CONDUIT    544.89     0  02:29      1.29    0.50    0.79
  WS02006109WS02006110 CONDUIT    544.66     0  02:29      1.08    1.05    1.00
  WS02004411WS02004412 CONDUIT    548.02     0  02:34      0.93    0.78    0.70
  WS02004401WS02004402 CONDUIT    550.15     0  02:31      0.77    0.66    0.87
  WS02004413WS02003067 CONDUIT    547.91     0  02:35      1.12    0.23    0.60
  WS02004412WS02004413 CONDUIT    547.95     0  02:35      0.83    0.37    0.78
  WS02004410WS02004411 CONDUIT    548.30     0  02:33      0.95    0.75    0.69
  WS02004409WS02004410 CONDUIT    548.95     0  02:33      0.97    0.71    0.68
  WS02004407WS02004409 CONDUIT    549.94     0  02:32      1.47    0.19    0.49
  WS02004406WS02004407 CONDUIT    550.00     0  02:32      1.05    0.25    0.63
  WS02004405WS02004406 CONDUIT    550.06     0  02:32      0.71    1.09    0.96
  WS02004404WS02004405 CONDUIT    550.03     0  02:32      0.84    5.39    0.97
  WS02004403WS02004404 CONDUIT    549.90     0  02:32      0.74    0.40    0.94
  WS02004402WS02004403 CONDUIT    549.95     0  02:32      0.75    0.79    0.89
  WS02004139WS02001211 CONDUIT    285.85     0  03:39      0.53    0.36    0.52
  WS02004138WS02004139 CONDUIT    285.00     0  03:33      2.39    0.06    0.38
  WS02003067WS02003066 CONDUIT    547.93     0  02:35      1.22    0.18    0.42
  WS02001213WS02003059 CONDUIT    295.06     0  03:38      0.58    0.49    0.71
  WS02001212WS02001213 CONDUIT    294.16     0  03:38      1.17    0.45    0.40
  WS02001211WS02001212 CONDUIT    293.77     0  03:39      0.66    0.22    0.57
  WS02003072WS02003073 CONDUIT    803.85     0  02:53      1.63    1.74    0.45
  WS02003069WS02003072 CONDUIT    804.14     0  02:53      1.54    0.39    0.47
  WS02003060WS02003069 CONDUIT    804.37     0  02:52      1.80    0.31    0.42
  WS02003059WS02003060 CONDUIT    296.32     0  03:37      0.80    0.19    0.61
  HS02004901HS02004770 CONDUIT     13.25     0  02:12      0.05    0.05    0.35
  HS02004876HS02004881 CONDUIT     45.37     0  02:16      0.68    0.48    0.10
  HS02004870HS02004876 CONDUIT     36.11     0  02:17      0.47    0.02    0.11
  HS02004842HS02004848 CONDUIT      6.65     0  02:29      0.03    0.00    0.28
  HS02004837HS02004842 CONDUIT      6.88     0  02:30      0.41    0.00    0.30
  HS02004830HS02004837 CONDUIT     28.29     0  02:17      0.48    0.03    0.08
  HS02004824HS02004830 CONDUIT     28.44     0  02:17      0.51    0.04    0.08
  HS02004817HS02004824 CONDUIT     47.60     0  02:20      0.17    0.02    0.42
  HS02004770HS02004777 CONDUIT     67.51     0  02:12      0.27    0.12    0.36
  HS02004799HS02004480 CONDUIT    166.86     0  02:14      0.67    0.21    0.35
  HS02004792HS02004799 CONDUIT    152.46     0  02:14      0.77    0.09    0.28
  HS02004788HS02004792 CONDUIT     88.65     0  02:15      0.91    0.06    0.14
  HS02004785HS02004788 CONDUIT     67.17     0  02:14      0.58    0.51    0.17
  HS02004777HS02004785 CONDUIT     67.11     0  02:14      0.32    0.08    0.30
  HS02004480HS02004478 CONDUIT    197.13     0  02:15      1.06    0.83    0.26
  HS02004479HS02004480 CONDUIT     30.93     0  02:16      0.16    0.03    0.34
  HS02004862HS02004870 CONDUIT     26.53     0  02:18      0.52    0.03    0.07
  HS02004848HS02004852 CONDUIT     11.06     0  02:17      0.35    0.01    0.05
  HS02004856HS02004862 CONDUIT     18.14     0  02:17      0.38    0.02    0.07
  HS02004852HS02004856 CONDUIT     11.02     0  02:18      0.16    0.01    0.10
  HS02004802HS02004478 CONDUIT     66.64     0  02:20      0.34    0.06    0.29
  HS02004478WS02006287 CONDUIT    261.58     0  02:16      1.45    0.07    0.20
  HS02004817HS02004807 CONDUIT     48.93     0  02:22      0.13    0.03    0.55
  HS02004807HS02004802 CONDUIT     66.13     0  02:19      0.29    0.13    0.33
  YS02001759YS02001757 CONDUIT    278.11     0  02:53      0.35    0.20    1.00
  YS02001762YS02001759 CONDUIT    150.49     0  02:53      0.19    0.17    1.00
  YS02001765YS02001762 CONDUIT    150.24     0  02:53      0.23    0.14    1.00
  YS02001770YS02001767 CONDUIT    144.66     0  02:51      0.30    0.57    1.00
  YS02001774YS02001770 CONDUIT     49.63     0  02:14      0.14    0.03    1.00
  YS02001779YS02001774 CONDUIT     48.46     0  03:29      0.07    0.02    1.00
  YS02001649YS02001757 CONDUIT    427.03     0  02:49      0.54    0.26    1.00
  YS02001767YS02001765 CONDUIT    149.17     0  02:53      0.26    0.19    1.00
  YS02006561YS02001783 CONDUIT    446.21     0  02:55      1.95    0.23    0.47
  YS02001783YS02001784 CONDUIT    445.04     0  02:55      1.38    0.61    0.61
  YS02001784YS02001785 CONDUIT    445.55     0  02:55      1.49    1.04    0.58
  YS02001788YS02001790 CONDUIT    445.66     0  02:55      2.04    0.33    0.45
  YS02001790YS02001791 CONDUIT    445.75     0  02:55      2.38    0.48    0.40
  YS02001791YS02001793 CONDUIT    445.52     0  02:55      4.88    0.19    0.26
  YS02001910YS02001907 CONDUIT    142.87     0  03:03      0.49    0.08    0.83
  YS02001786YS02001788 CONDUIT    445.59     0  02:55      1.94    0.86    0.47
  YS02001915YS02001910 CONDUIT    142.31     0  03:02      0.45    0.07    0.62
  YS02001918YS02001915 CONDUIT     50.80     0  03:03      0.44    0.03    0.33
  YS02001923YS02001920 CONDUIT     44.17     0  03:01      0.51    0.02    0.17
  YS02001926YS02001923 CONDUIT     44.13     0  03:01      0.56    0.06    0.16
  YS02001929YS02001926 CONDUIT     44.17     0  03:01      0.60    0.02    0.15
  YS02001920YS02001918 CONDUIT     47.91     0  03:03      0.52    0.05    0.20
  YS02001629YS02163301 CONDUIT    104.43     0  02:49      0.13    0.13    1.00
  YS02001619YS02001622 CONDUIT    122.32     0  03:49      0.70    0.18    1.00
  YS02001622YS02001625 CONDUIT    165.64     0  03:34      0.29    0.09    1.00
  YS02001625YS02001629 CONDUIT    165.77     0  03:34      0.28    0.08    1.00
  YS02163301YS02001633 CONDUIT    105.48     0  02:49      0.13    0.10    1.00
  YS02163601YS02164001 CONDUIT    201.07     0  02:49      0.26    0.18    1.00
  YS02164001YS02001641 CONDUIT    197.21     0  02:49      0.25    0.27    1.00
  YS02001641YS02001644 CONDUIT    196.54     0  02:55      0.25    0.64    1.00
  YS02001647YS02001649 CONDUIT    330.22     0  02:49      0.42    0.17    1.00
  YS02006553YS02006556 CONDUIT    307.09     0  03:02      0.41    0.26    0.91
  YS02006556YS02006558 CONDUIT    313.68     0  03:02      0.41    0.25    0.93
  YSB6556YSB1171       CONDUIT     16.80     0  02:18      0.07    0.02    0.61
  YS02001907YS02006553 CONDUIT    306.19     0  02:59      0.34    0.36    1.00
  YS02006558YS02006561 CONDUIT    471.87     0  02:55      2.68    1.04    0.60
  YS02001633YS02163601 CONDUIT    202.01     0  02:49      0.26    0.21    1.00
  YS02001644YS02001647 CONDUIT    293.48     0  02:55      0.37    0.17    1.00
  YS02001745YS02001748 CONDUIT    250.00     0  04:44      1.50    0.10    0.79
  YS02001748YS02001751 CONDUIT    379.48     0  03:30      1.16    0.19    1.00
  YS02001751YS02001754 CONDUIT    171.93     0  03:24      1.00    0.08    1.00
  YS02001754YS02001757 CONDUIT    166.16     0  03:33      0.33    0.07    1.00
  YS02001882YS02001884 CONDUIT      4.88     0  02:07      0.06    0.01    0.55
  YS02001884YS02001887 CONDUIT     13.66     0  02:10      0.06    0.02    0.65
  YS02001890YS02001895 CONDUIT    166.80     0  02:46      0.33    0.08    0.62
  YS02001895YS02001898 CONDUIT    166.79     0  02:46      0.49    0.29    0.48
  YS02001898YS02001901 CONDUIT    166.44     0  02:46      0.37    0.11    0.56
  YS02001901YS02001904 CONDUIT    166.05     0  02:47      0.33    0.26    0.61
  YS02001904YS02001907 CONDUIT    166.05     0  02:45      0.26    0.06    0.77
  YS02001887YS02001890 CONDUIT    167.09     0  02:47      0.29    0.29    0.70
  YS02001652YS02001649 CONDUIT    158.57     0  03:21      0.33    0.08    1.00
  YS02001655YS02001652 CONDUIT    170.91     0  02:49      1.07    0.08    1.00
  YS02001658YS02001655 CONDUIT    340.26     0  03:35      1.34    0.14    1.00
  YS02001661YS02001658 CONDUIT    291.27     0  04:14      1.56    0.11    0.83
  YS02001664YS02001661 CONDUIT    138.42     0  05:11      1.29    0.04    0.47
  YSB1154YSB6556       CONDUIT     16.51     0  02:15      0.19    0.03    0.50
  YSB1174YSB1171       CONDUIT     14.88     0  02:09      0.06    0.02    0.62
  YSB1171HS02004479    CONDUIT     30.69     0  02:16      0.54    0.02    0.48
  HS02004881HS02006253 CONDUIT     50.71     0  02:16      1.84    0.01    0.14
  YS02001793JiankangQianchi CONDUIT    448.31     0  02:56     14.68    0.04    0.56
  YS02001757CaochengTiaoxuchi CONDUIT    761.07     0  02:55      1.58    0.33    1.00
  WSF200WS02003060     CONDUIT    547.88     0  02:35      1.78    0.12    0.32
  1                    CONDUIT    805.08     0  02:54      3.14    0.28    0.36
  2                    CONDUIT      5.04     0  02:33      2.00    0.01    0.08
  3                    CONDUIT    509.63     0  02:32      9.82    0.81    0.69
  4                    CONDUIT      0.00     0  00:00      0.00    0.00    0.00
  CC-Pump-1            PUMP         0.00     0  00:00              0.00
  CC-Pump-2            PUMP       200.00     0  02:17              1.00
  JK-Pump-1            PUMP       300.00     0  02:21              1.00
  JK-Pump-2            PUMP       300.00     0  00:00              1.00
  XR-Pump-1            PUMP        95.00     0  01:00              1.00
  XR-Pump-2            PUMP         0.00     0  00:00              0.00
  XR-Pump-3            PUMP        95.00     0  00:00              1.00
  XR-Pump-4            PUMP        95.00     0  00:20              1.00
  
  
  ***************************
  Flow Classification Summary
  ***************************
  
  -------------------------------------------------------------------------------------
                      Adjusted    ---------- Fraction of Time in Flow Class ---------- 
                       /Actual         Up    Down  Sub   Sup   Up    Down  Norm  Inlet 
  Conduit               Length    Dry  Dry   Dry   Crit  Crit  Crit  Crit  Ltd   Ctrl  
  -------------------------------------------------------------------------------------
  WS02003066WSF200        1.00   0.06  0.00  0.00  0.00  0.94  0.00  0.00  0.68  0.00
  WS02006287WS02006284    1.00   0.04  0.01  0.00  0.66  0.29  0.00  0.00  0.76  0.00
  WS02006284WS02006280    1.00   0.04  0.00  0.00  0.00  0.00  0.00  0.96  0.00  0.00
  WS02006280WS02006229    1.00   0.04  0.00  0.00  0.00  0.00  0.00  0.96  0.00  0.00
  WS02006229WS02006228    1.00   0.00  0.00  0.00  0.99  0.00  0.00  0.01  0.00  0.00
  WS02006256WS02006235    1.00   0.00  0.00  0.00  1.00  0.00  0.00  0.00  0.00  0.00
  WS02006253WS02006251    1.00   0.03  0.01  0.00  0.96  0.00  0.00  0.00  0.00  0.00
  WS02006252WS02006251    1.00   0.08  0.00  0.00  0.00  0.00  0.92  0.00  0.00  0.00
  WS02006251WS02006249    1.00   0.00  0.00  0.00  1.00  0.00  0.00  0.00  0.25  0.00
  WS02006249WS02006248    1.00   0.00  0.02  0.00  0.91  0.00  0.06  0.00  0.00  0.00
  WS02006248WS02006247    1.00   0.02  0.00  0.00  0.98  0.00  0.00  0.00  0.15  0.00
  WS02006247WS02006245    1.00   0.02  0.00  0.00  0.98  0.00  0.00  0.00  0.00  0.00
  WS02006245WS02006243    1.00   0.01  0.00  0.00  0.94  0.00  0.00  0.04  0.01  0.00
  WS02006243WS02006242    1.00   0.01  0.00  0.00  0.99  0.00  0.00  0.00  0.25  0.00
  WS02006242WS02006240    1.00   0.00  0.00  0.00  1.00  0.00  0.00  0.00  0.00  0.00
  WS02006240WS02006239    1.00   0.00  0.00  0.00  0.96  0.00  0.00  0.04  0.01  0.00
  WS02006239WS02006238    1.00   0.00  0.00  0.00  1.00  0.00  0.00  0.00  0.00  0.00
  WS02006238WS02006235    1.00   0.00  0.00  0.00  1.00  0.00  0.00  0.00  0.00  0.00
  WS02006235WS02006234    1.00   0.00  0.00  0.00  0.96  0.00  0.04  0.00  0.00  0.00
  WS02006234WS02006232    1.00   0.00  0.00  0.00  1.00  0.00  0.00  0.00  0.14  0.00
  WS02006232WS02006231    1.00   0.00  0.00  0.00  0.99  0.00  0.00  0.00  0.00  0.00
  WS02006231WS02006230    1.00   0.00  0.00  0.00  0.36  0.00  0.64  0.00  0.00  0.00
  WS02006230WS02006229    1.00   0.00  0.00  0.00  0.99  0.00  0.00  0.01  0.01  0.00
  WS02006228WS02006109    1.00   0.00  0.00  0.00  1.00  0.00  0.00  0.00  0.00  0.00
  WS02006116WS02004401    1.00   0.02  0.00  0.00  0.98  0.00  0.00  0.00  0.00  0.00
  WS02006115WS02006116    1.00   0.02  0.00  0.00  0.97  0.00  0.00  0.01  0.00  0.00
  WS02006113WS02006111    1.00   0.02  0.00  0.00  0.00  0.98  0.00  0.00  0.10  0.00
  WS02006112WS02006115    1.00   0.02  0.00  0.00  0.97  0.00  0.00  0.00  0.00  0.00
  WS02006111WS02006112    1.00   0.02  0.00  0.00  0.98  0.00  0.00  0.00  0.98  0.00
  WS02006110WS02006113    1.00   0.01  0.01  0.00  0.98  0.00  0.00  0.00  0.00  0.00
  WS02006109WS02006110    1.00   0.00  0.01  0.00  0.98  0.00  0.01  0.00  0.00  0.00
  WS02004411WS02004412    1.00   0.04  0.00  0.00  0.96  0.00  0.00  0.00  0.00  0.00
  WS02004401WS02004402    1.00   0.02  0.00  0.00  0.97  0.00  0.00  0.00  0.00  0.00
  WS02004413WS02003067    1.00   0.04  0.01  0.00  0.00  0.00  0.95  0.00  0.00  0.00
  WS02004412WS02004413    1.00   0.04  0.00  0.00  0.96  0.00  0.00  0.00  0.03  0.00
  WS02004410WS02004411    1.00   0.04  0.00  0.00  0.96  0.00  0.00  0.00  0.04  0.00
  WS02004409WS02004410    1.00   0.04  0.00  0.00  0.96  0.00  0.00  0.00  0.04  0.00
  WS02004407WS02004409    1.00   0.04  0.00  0.00  0.96  0.00  0.00  0.00  0.89  0.00
  WS02004406WS02004407    1.00   0.00  0.04  0.00  0.96  0.00  0.00  0.00  0.00  0.00
  WS02004405WS02004406    1.00   0.00  0.00  0.00  1.00  0.00  0.00  0.00  0.01  0.00
  WS02004404WS02004405    1.00   0.00  0.00  0.00  1.00  0.00  0.00  0.00  0.00  0.00
  WS02004403WS02004404    1.00   0.00  0.03  0.00  0.97  0.00  0.00  0.00  0.01  0.00
  WS02004402WS02004403    1.00   0.03  0.00  0.00  0.97  0.00  0.00  0.00  0.00  0.00
  WS02004139WS02001211    1.00   0.00  0.00  0.00  0.99  0.00  0.01  0.00  0.00  0.00
  WS02004138WS02004139    1.00   0.00  0.00  0.00  0.99  0.01  0.00  0.00  1.00  0.00
  WS02003067WS02003066    1.00   0.05  0.00  0.00  0.94  0.00  0.00  0.00  0.00  0.00
  WS02001213WS02003059    1.00   0.00  0.01  0.00  0.99  0.00  0.00  0.00  0.00  0.00
  WS02001212WS02001213    1.00   0.01  0.00  0.00  0.90  0.00  0.10  0.00  0.00  0.00
  WS02001211WS02001212    1.00   0.00  0.01  0.00  0.99  0.00  0.00  0.00  0.00  0.00
  WS02003072WS02003073    1.00   0.00  0.00  0.00  0.00  0.00  0.00  1.00  0.00  0.00
  WS02003069WS02003072    1.00   0.00  0.00  0.00  0.99  0.01  0.00  0.00  0.27  0.00
  WS02003060WS02003069    1.00   0.00  0.00  0.00  0.99  0.01  0.00  0.00  0.16  0.00
  WS02003059WS02003060    1.00   0.00  0.00  0.00  1.00  0.00  0.00  0.00  0.02  0.00
  HS02004901HS02004770    1.00   0.04  0.00  0.00  0.96  0.00  0.00  0.00  0.02  0.00
  HS02004876HS02004881    1.00   0.02  0.00  0.00  0.98  0.00  0.00  0.00  0.00  0.00
  HS02004870HS02004876    1.00   0.01  0.00  0.00  0.99  0.00  0.00  0.00  0.95  0.00
  HS02004842HS02004848    1.00   0.00  0.04  0.00  0.96  0.00  0.00  0.00  0.67  0.00
  HS02004837HS02004842    1.00   0.00  0.00  0.00  0.99  0.01  0.00  0.00  0.11  0.00
  HS02004830HS02004837    1.00   0.00  0.00  0.00  1.00  0.00  0.00  0.00  0.99  0.00
  HS02004824HS02004830    1.00   0.00  0.00  0.00  1.00  0.00  0.00  0.00  0.00  0.00
  HS02004817HS02004824    1.00   0.00  0.00  0.00  1.00  0.00  0.00  0.00  1.00  0.00
  HS02004770HS02004777    1.00   0.00  0.04  0.00  0.96  0.00  0.00  0.00  0.07  0.00
  HS02004799HS02004480    1.00   0.00  0.02  0.00  0.95  0.00  0.03  0.00  0.00  0.00
  HS02004792HS02004799    1.00   0.00  0.00  0.00  0.99  0.01  0.00  0.00  0.98  0.00
  HS02004788HS02004792    1.00   0.00  0.00  0.00  0.99  0.01  0.00  0.00  0.98  0.00
  HS02004785HS02004788    1.00   0.00  0.00  0.00  1.00  0.00  0.00  0.00  0.00  0.00
  HS02004777HS02004785    1.00   0.00  0.00  0.00  1.00  0.00  0.00  0.00  0.20  0.00
  HS02004480HS02004478    1.00   0.05  0.00  0.00  0.71  0.00  0.00  0.25  0.00  0.00
  HS02004479HS02004480    1.00   0.03  0.00  0.00  0.97  0.00  0.00  0.00  0.15  0.00
  HS02004862HS02004870    1.00   0.00  0.00  0.00  1.00  0.00  0.00  0.00  0.06  0.00
  HS02004848HS02004852    1.00   0.04  0.00  0.00  0.96  0.00  0.00  0.00  0.71  0.00
  HS02004856HS02004862    1.00   0.00  0.06  0.00  0.94  0.00  0.00  0.00  0.75  0.00
  HS02004852HS02004856    1.00   0.04  0.01  0.00  0.95  0.00  0.00  0.00  0.83  0.00
  HS02004802HS02004478    1.00   0.04  0.00  0.00  0.95  0.00  0.00  0.00  0.01  0.00
  HS02004478WS02006287    1.00   0.05  0.00  0.00  0.83  0.12  0.00  0.00  0.74  0.00
  HS02004817HS02004807    1.00   0.00  0.04  0.00  0.96  0.00  0.00  0.00  0.00  0.00
  HS02004807HS02004802    1.00   0.04  0.00  0.00  0.95  0.00  0.00  0.00  0.01  0.00
  YS02001759YS02001757    1.00   0.00  0.00  0.00  1.00  0.00  0.00  0.00  0.17  0.00
  YS02001762YS02001759    1.00   0.00  0.00  0.00  1.00  0.00  0.00  0.00  0.04  0.00
  YS02001765YS02001762    1.00   0.00  0.00  0.00  1.00  0.00  0.00  0.00  0.21  0.00
  YS02001770YS02001767    1.00   0.00  0.00  0.00  1.00  0.00  0.00  0.00  0.00  0.00
  YS02001774YS02001770    1.00   0.00  0.05  0.00  0.95  0.00  0.00  0.00  0.06  0.00
  YS02001779YS02001774    1.00   0.00  0.00  0.00  1.00  0.00  0.00  0.00  0.26  0.00
  YS02001649YS02001757    1.00   0.00  0.00  0.00  1.00  0.00  0.00  0.00  0.19  0.00
  YS02001767YS02001765    1.00   0.00  0.00  0.00  1.00  0.00  0.00  0.00  0.01  0.00
  YS02006561YS02001783    1.00   0.06  0.00  0.00  0.00  0.93  0.00  0.00  0.62  0.00
  YS02001783YS02001784    1.00   0.00  0.07  0.00  0.93  0.00  0.00  0.00  0.00  0.00
  YS02001784YS02001785    1.00   0.00  0.00  0.00  1.00  0.00  0.00  0.00  0.25  0.00
  YS02001788YS02001790    1.00   0.00  0.00  0.00  0.07  0.93  0.00  0.00  0.70  0.00
  YS02001790YS02001791    1.00   0.00  0.00  0.00  0.02  0.98  0.00  0.00  0.62  0.00
  YS02001791YS02001793    1.00   0.00  0.00  0.00  0.00  1.00  0.00  0.00  0.00  0.00
  YS02001910YS02001907    1.00   0.00  0.00  0.00  0.97  0.00  0.00  0.02  0.13  0.00
  YS02001786YS02001788    1.00   0.00  0.00  0.00  0.07  0.93  0.00  0.00  0.00  0.00
  YS02001915YS02001910    1.00   0.00  0.00  0.00  0.99  0.01  0.00  0.00  0.23  0.00
  YS02001918YS02001915    1.00   0.00  0.01  0.00  0.98  0.01  0.00  0.00  0.70  0.00
  YS02001923YS02001920    1.00   0.00  0.00  0.00  1.00  0.00  0.00  0.00  1.00  0.00
  YS02001926YS02001923    1.00   0.00  0.03  0.00  0.00  0.00  0.97  0.00  0.00  0.00
  YS02001929YS02001926    1.00   0.00  0.04  0.00  0.96  0.00  0.00  0.00  0.87  0.00
  YS02001920YS02001918    1.00   0.00  0.01  0.00  0.99  0.00  0.00  0.00  0.00  0.00
  YS02001629YS02163301    1.00   0.06  0.00  0.00  0.94  0.00  0.00  0.00  0.00  0.00
  YS02001619YS02001622    1.00   0.04  0.00  0.00  0.96  0.00  0.00  0.00  0.00  0.00
  YS02001622YS02001625    1.00   0.04  0.00  0.00  0.96  0.00  0.00  0.00  0.12  0.00
  YS02001625YS02001629    1.00   0.04  0.02  0.00  0.92  0.00  0.01  0.00  0.00  0.00
  YS02163301YS02001633    1.00   0.00  0.06  0.00  0.94  0.00  0.00  0.00  0.00  0.00
  YS02163601YS02164001    1.00   0.00  0.03  0.00  0.97  0.00  0.00  0.00  0.00  0.00
  YS02164001YS02001641    1.00   0.01  0.03  0.00  0.97  0.00  0.00  0.00  0.07  0.00
  YS02001641YS02001644    1.00   0.00  0.01  0.00  0.99  0.00  0.00  0.00  0.00  0.00
  YS02001647YS02001649    1.00   0.00  0.06  0.00  0.94  0.00  0.00  0.00  0.01  0.00
  YS02006553YS02006556    1.00   0.01  0.00  0.00  0.99  0.00  0.00  0.00  0.03  0.00
  YS02006556YS02006558    1.00   0.00  0.00  0.00  1.00  0.00  0.00  0.00  0.00  0.00
  YSB6556YSB1171          1.00   0.03  0.01  0.00  0.96  0.00  0.00  0.00  0.00  0.00
  YS02001907YS02006553    1.00   0.00  0.02  0.00  0.98  0.00  0.00  0.00  0.00  0.00
  YS02006558YS02006561    1.00   0.06  0.00  0.00  0.00  0.93  0.00  0.00  0.62  0.00
  YS02001633YS02163601    1.00   0.00  0.01  0.00  0.99  0.00  0.00  0.00  0.19  0.00
  YS02001644YS02001647    1.00   0.00  0.06  0.00  0.94  0.00  0.00  0.00  0.00  0.00
  YS02001745YS02001748    1.00   0.00  0.00  0.00  0.88  0.01  0.00  0.11  0.11  0.00
  YS02001748YS02001751    1.00   0.00  0.00  0.00  0.97  0.03  0.00  0.00  0.23  0.00
  YS02001751YS02001754    1.00   0.00  0.00  0.00  0.93  0.00  0.00  0.07  0.01  0.00
  YS02001754YS02001757    1.00   0.00  0.00  0.00  0.99  0.01  0.00  0.00  0.26  0.00
  YS02001882YS02001884    1.00   0.05  0.00  0.00  0.94  0.00  0.00  0.00  0.00  0.00
  YS02001884YS02001887    1.00   0.03  0.01  0.00  0.96  0.00  0.00  0.00  0.00  0.00
  YS02001890YS02001895    1.00   0.00  0.06  0.00  0.94  0.00  0.00  0.00  0.00  0.00
  YS02001895YS02001898    1.00   0.06  0.00  0.00  0.93  0.00  0.01  0.00  0.00  0.00
  YS02001898YS02001901    1.00   0.06  0.00  0.00  0.94  0.00  0.00  0.00  0.02  0.00
  YS02001901YS02001904    1.00   0.06  0.00  0.00  0.94  0.00  0.00  0.00  0.00  0.00
  YS02001904YS02001907    1.00   0.00  0.05  0.00  0.94  0.00  0.00  0.00  0.00  0.00
  YS02001887YS02001890    1.00   0.00  0.00  0.00  0.97  0.00  0.02  0.00  0.00  0.00
  YS02001652YS02001649    1.00   0.00  0.00  0.00  1.00  0.00  0.00  0.00  0.25  0.00
  YS02001655YS02001652    1.00   0.00  0.00  0.00  0.93  0.00  0.00  0.07  0.02  0.00
  YS02001658YS02001655    1.00   0.00  0.05  0.00  0.92  0.03  0.00  0.00  0.09  0.00
  YS02001661YS02001658    1.00   0.05  0.00  0.00  0.88  0.07  0.00  0.00  0.12  0.00
  YS02001664YS02001661    1.00   0.04  0.00  0.00  0.77  0.19  0.00  0.00  0.43  0.00
  YSB1154YSB6556          1.00   0.04  0.00  0.00  0.96  0.00  0.00  0.00  0.02  0.00
  YSB1174YSB1171          1.00   0.03  0.01  0.00  0.96  0.00  0.00  0.00  0.00  0.00
  YSB1171HS02004479       1.00   0.03  0.00  0.00  0.97  0.00  0.00  0.00  0.13  0.00
  HS02004881HS02006253    1.00   0.03  0.00  0.00  0.86  0.01  0.00  0.10  0.68  0.00
  YS02001793JiankangQianchi    1.00   0.00  0.00  0.00  0.13  0.87  0.00  0.00  0.14  0.00
  YS02001757CaochengTiaoxuchi    1.00   0.00  0.08  0.00  0.92  0.00  0.00  0.00  0.00  0.00
  WSF200WS02003060        1.00   0.00  0.06  0.00  0.74  0.20  0.00  0.00  0.10  0.00
  1                       1.00   0.00  0.00  0.00  0.00  1.00  0.00  0.00  0.29  0.00
  2                       1.00   0.94  0.00  0.00  0.00  0.06  0.00  0.00  0.02  0.00
  3                       1.00   0.17  0.00  0.00  0.00  0.83  0.00  0.00  0.31  0.00
  4                       1.00   1.00  0.00  0.00  0.00  0.00  0.00  0.00  0.00  0.00
  
  
  *************************
  Conduit Surcharge Summary
  *************************
  
  ----------------------------------------------------------------------------
                                                           Hours        Hours 
                         --------- Hours Full --------   Above Full   Capacity
  Conduit                Both Ends  Upstream  Dnstream   Normal Flow   Limited
  ----------------------------------------------------------------------------
  WS02006229WS02006228        1.05      1.10      1.05      5.00         1.05
  WS02006256WS02006235        5.77      5.78      6.55      4.41         0.01
  WS02006249WS02006248        0.01      0.01      0.01      5.25         0.01
  WS02006247WS02006245        0.01      0.01      0.01      5.35         0.01
  WS02006243WS02006242        0.01      0.01      0.20      0.01         0.01
  WS02006242WS02006240        0.01      0.01      0.39      0.01         0.01
  WS02006240WS02006239        0.01      0.01      0.21      0.01         0.01
  WS02006239WS02006238        0.45      0.45      0.54      0.01         0.01
  WS02006238WS02006235        0.52      0.52      0.62      0.01         0.01
  WS02006235WS02006234        0.25      0.25      0.47      5.79         0.01
  WS02006234WS02006232        0.39      0.39      0.84      0.01         0.01
  WS02006232WS02006231        0.01      0.01      0.84      0.01         0.01
  WS02006231WS02006230        0.01      0.01      0.01      5.79         0.01
  WS02006230WS02006229        1.25      4.13      1.25      5.87         1.25
  WS02006228WS02006109        1.07      1.20      1.07      5.65         1.07
  WS02006112WS02006115        0.01      0.01      0.51      0.01         0.01
  WS02006111WS02006112        0.01      0.01      5.37      0.01         0.01
  WS02006110WS02006113        0.01      0.01      1.14      0.01         0.01
  WS02006109WS02006110        0.28      0.28      1.20      0.29         0.01
  WS02004405WS02004406        0.01      0.01      0.01      0.40         0.01
  WS02004404WS02004405        0.01      0.01      0.01      5.66         0.01
  WS02003072WS02003073        0.01      0.01      0.01      5.31         0.01
  YS02001759YS02001757        5.38      5.38      5.46      0.01         0.01
  YS02001762YS02001759        5.35      5.35      5.38      0.01         0.01
  YS02001765YS02001762        5.32      5.32      5.35      0.01         0.01
  YS02001770YS02001767        5.27      5.27      5.28      0.01         0.65
  YS02001774YS02001770        5.22      5.22      5.34      0.01         0.01
  YS02001779YS02001774        4.34      4.34      5.34      0.01         0.01
  YS02001649YS02001757        5.36      5.36      5.46      0.01         0.01
  YS02001767YS02001765        5.28      5.28      5.32      0.01         0.02
  YS02001784YS02001785        0.01      0.01      0.01      0.42         0.01
  YS02001629YS02163301        5.20      5.20      5.26      0.01         0.01
  YS02001619YS02001622        3.75      3.76      3.88      0.01         0.01
  YS02001622YS02001625        3.88      3.88      5.06      0.01         0.01
  YS02001625YS02001629        3.81      3.81      5.06      0.01         0.01
  YS02163301YS02001633        5.26      5.26      5.33      0.01         0.01
  YS02163601YS02164001        5.32      5.32      5.36      0.01         0.01
  YS02164001YS02001641        5.32      5.32      5.33      0.01         0.01
  YS02001641YS02001644        5.33      5.33      5.33      0.01         0.95
  YS02001647YS02001649        4.97      4.97      5.36      0.01         0.01
  YS02001907YS02006553        0.45      0.45      0.78      0.01         0.01
  YS02006558YS02006561        0.01      0.01      0.01      0.11         0.01
  YS02001633YS02163601        5.30      5.30      5.36      0.01         0.01
  YS02001644YS02001647        4.97      4.97      5.33      0.01         0.01
  YS02001745YS02001748        0.01      0.01      0.02      0.01         0.01
  YS02001748YS02001751        1.99      1.99      3.92      0.01         0.01
  YS02001751YS02001754        3.92      3.92      4.50      0.01         0.01
  YS02001754YS02001757        4.96      4.96      5.46      0.01         0.01
  YS02001652YS02001649        5.03      5.03      5.36      0.01         0.01
  YS02001655YS02001652        4.04      4.04      4.84      0.01         0.01
  YS02001658YS02001655        0.15      0.15      4.04      0.01         0.01
  YS02001661YS02001658        0.01      0.01      0.15      0.01         0.01
  YS02001793JiankangQianchi        0.01      0.01      0.52      0.01         0.01
  YS02001757CaochengTiaoxuchi        3.27      3.27      5.46      0.01         0.01
  
  
  ***************
  Pumping Summary
  ***************
  
  ---------------------------------------------------------------------------------------------------------
                                                  Min       Avg       Max     Total     Power    % Time Off
                        Percent   Number of      Flow      Flow      Flow    Volume     Usage    Pump Curve
  Pump                 Utilized   Start-Ups       LPS       LPS       LPS  10^6 ltr     Kw-hr    Low   High
  ---------------------------------------------------------------------------------------------------------
  CC-Pump-1                0.00           0      0.00      0.00      0.00     0.000      0.00    0.0    0.0
  CC-Pump-2               71.61           1      0.00    192.15    200.00     3.892      7.65    0.0   12.1
  JK-Pump-1               55.31           7      0.00    156.98    300.00     2.107     40.26    0.0    0.0
  JK-Pump-2              100.00           1      0.00    163.01    300.00     3.480     66.09    0.0    0.0
  XR-Pump-1               72.32          10      0.00     67.69     95.00     1.339      7.90    0.0    0.0
  XR-Pump-2                0.00           0      0.00      0.00      0.00     0.000      0.00    0.0    0.0
  XR-Pump-3              100.00           2      0.00     91.90     95.00     2.565     16.44    0.0    0.0
  XR-Pump-4               95.73           4      0.00     79.88     95.00     2.137     13.43    0.0    0.0
  

  Analysis begun on:  Wed Jan  5 22:10:59 2022
  Analysis ended on:  Wed Jan  5 22:11:02 2022
  Total elapsed time: 00:00:03