
  EPA STORM WATER MANAGEMENT MODEL - VERSION 5.1 (Build 5.3.0.dev0)
  --------------------------------------------------------------

  WARNING 04: minimum elevation drop used for Conduit WS02004404WS02004405
  WARNING 03: negative offset ignored for Link YS02001904YS02001907
  
  *********************************************************
  NOTE: The summary statistics displayed in this report are
  based on results found at every computational time step,  
  not just on results from each reporting time step.
  *********************************************************
  
  ****************
  Analysis Options
  ****************
  Flow Units ............... LPS
  Process Models:
    Rainfall/Runoff ........ YES
    RDII ................... NO
    Snowmelt ............... NO
    Groundwater ............ NO
    Flow Routing ........... YES
    Ponding Allowed ........ NO
    Water Quality .......... NO
  Infiltration Method ...... HORTON
  Flow Routing Method ...... DYNWAVE
  Surcharge Method ......... EXTRAN
  Starting Date ............ 08/28/2015 08:00:00
  Ending Date .............. 08/28/2015 15:50:00
  Antecedent Dry Days ...... 8.0
  Report Time Step ......... 00:01:00
  Wet Time Step ............ 00:01:00
  Dry Time Step ............ 00:01:00
  Routing Time Step ........ 5.00 sec
  Variable Time Step ....... YES
  Maximum Trials ........... 8
  Number of Threads ........ 4
  Head Tolerance ........... 0.001500 m
  
  
  **************************        Volume         Depth
  Runoff Quantity Continuity     hectare-m            mm
  **************************     ---------       -------
  Total Precipitation ......         1.967         4.306
  Evaporation Loss .........         0.000         0.000
  Infiltration Loss ........         0.486         1.064
  Surface Runoff ...........         0.673         1.473
  Final Storage ............         0.809         1.770
  Continuity Error (%) .....        -0.017
  
  
  **************************        Volume        Volume
  Flow Routing Continuity        hectare-m      10^6 ltr
  **************************     ---------     ---------
  Dry Weather Inflow .......         0.616         6.165
  Wet Weather Inflow .......         0.672         6.721
  Groundwater Inflow .......         0.000         0.000
  RDII Inflow ..............         0.000         0.000
  External Inflow ..........         0.102         1.024
  External Outflow .........         1.410        14.096
  Flooding Loss ............         0.000         0.001
  Evaporation Loss .........         0.000         0.000
  Exfiltration Loss ........         0.000         0.000
  Initial Stored Volume ....         0.076         0.761
  Final Stored Volume ......         0.146         1.457
  Continuity Error (%) .....        -6.020
  
  
  *************************
  Highest Continuity Errors
  *************************
  Node JK-storage (-40.24%)
  Node HS02004842 (36.00%)
  Node YS02001884 (30.31%)
  Node YS02001774 (16.23%)
  Node YSB1171 (10.21%)
  
  
  ***************************
  Time-Step Critical Elements
  ***************************
  Link WS02006252WS02006251 (81.20%)
  Link 3 (11.91%)
  Link WS02006280WS02006229 (2.46%)
  
  
  ********************************
  Highest Flow Instability Indexes
  ********************************
  Link WS02006113WS02006111 (50)
  Link WS02006111WS02006112 (24)
  Link YS02001754YS02001757 (3)
  Link YS02001751YS02001754 (3)
  Link YS02001762YS02001759 (3)
  
  
  *************************
  Routing Time Step Summary
  *************************
  Minimum Time Step           :     0.50 sec
  Average Time Step           :     0.98 sec
  Maximum Time Step           :     5.00 sec
  Percent in Steady State     :    -0.00
  Average Iterations per Step :     2.00
  Percent Not Converging      :     0.02
  
  
  ***************************
  Subcatchment Runoff Summary
  ***************************
  
  ------------------------------------------------------------------------------------------------------------------------------
                            Total      Total      Total      Total     Imperv       Perv      Total       Total     Peak  Runoff
                           Precip      Runon       Evap      Infil     Runoff     Runoff     Runoff      Runoff   Runoff   Coeff
  Subcatchment                 mm         mm         mm         mm         mm         mm         mm    10^6 ltr      LPS
  ------------------------------------------------------------------------------------------------------------------------------
  sub0                       4.31       0.00       0.00       0.30       2.74       0.00       2.74        0.00     0.83   0.636
  sub1                       4.31       0.00       0.00       0.47       2.58       0.00       2.58        0.02     4.25   0.599
  sub2                       4.31       0.00       0.00       1.59       1.81       0.00       1.81        0.02     3.74   0.420
  sub3                       4.31       0.00       0.00       1.59       1.78       0.00       1.78        0.04     7.64   0.413
  sub4                       4.31       0.00       0.00       0.47       2.45       0.00       2.45        0.05     8.52   0.569
  sub5                       4.31       0.00       0.00       0.30       2.69       0.00       2.69        0.03     7.56   0.626
  sub7                       4.31       0.00       0.00       0.39       2.66       0.00       2.66        0.01     2.69   0.619
  sub8                       4.31       0.00       0.00       0.39       2.66       0.00       2.66        0.02     4.73   0.617
  sub9                       4.31       0.00       0.00       0.39       2.65       0.00       2.65        0.01     3.50   0.616
  sub10                      4.31       0.00       0.00       0.34       2.67       0.00       2.67        0.03     7.55   0.621
  sub11                      4.31       0.00       0.00       0.34       2.69       0.00       2.69        0.03     8.91   0.624
  sub12                      4.31       0.00       0.00       0.56       2.56       0.00       2.56        0.02     7.63   0.594
  sub14                      4.31       0.00       0.00       0.39       2.65       0.00       2.65        0.03     6.84   0.616
  sub15                      4.31       0.00       0.00       1.29       2.04       0.00       2.04        0.04     9.27   0.473
  sub16                      4.31       0.00       0.00       1.42       1.97       0.00       1.97        0.02     6.68   0.457
  sub17                      4.31       0.00       0.00       1.38       1.99       0.00       1.99        0.02     5.39   0.463
  sub22                      4.31       0.00       0.00       1.85       1.67       0.00       1.67        0.11    30.51   0.387
  sub23                      4.31       0.00       0.00       1.59       1.84       0.00       1.84        0.09    26.01   0.428
  sub60                      4.31       0.00       0.00       0.52       1.61       0.00       1.61        0.49    41.47   0.373
  sub61                      4.31       0.00       0.00       0.73       1.77       0.00       1.77        0.55    52.87   0.411
  sub62                      4.31       0.00       0.00       0.34       1.88       0.00       1.88        0.58    53.89   0.437
  sub63                      4.31       0.00       0.00       1.25       1.59       0.00       1.59        0.48    49.53   0.370
  sub64                      4.31       0.00       0.00       0.65       1.53       0.00       1.53        0.47    39.31   0.356
  sub65                      4.31       0.00       0.00       0.56       1.55       0.00       1.55        0.48    39.81   0.359
  sub66                      4.31       0.00       0.00       1.25       1.35       0.00       1.35        0.41    36.31   0.313
  sub67                      4.31       0.00       0.00       0.34       2.12       0.00       2.12        0.65    69.78   0.493
  sub68                      4.31       0.00       0.00       0.60       1.89       0.00       1.89        0.58    58.60   0.440
  sub69                      4.31       0.00       0.00       0.65       2.10       0.00       2.10        0.49    58.79   0.488
  sub70                      4.31       2.14       0.00       2.19       2.42       0.00       2.42        0.55    43.75   0.376
  sub71                      4.31       0.00       0.00       0.34       1.78       0.00       1.78        0.42    37.41   0.413
  sub72                      4.31       0.00       0.00       0.30       1.18       0.00       1.18        0.24    16.89   0.274
  sub73                      4.31       2.36       0.00       2.27       2.36       0.00       2.36        0.55    37.29   0.354
  sub74                      4.31       0.00       0.00       3.23       0.64       0.00       0.64        0.26    32.93   0.148
  
  
  ******************
  Node Depth Summary
  ******************
  
  ---------------------------------------------------------------------------------
                                 Average  Maximum  Maximum  Time of Max    Reported
                                   Depth    Depth      HGL   Occurrence   Max Depth
  Node                 Type       Meters   Meters   Meters  days hr:min      Meters
  ---------------------------------------------------------------------------------
  WS02001211           JUNCTION     0.65     0.71     5.55     0  03:00        0.71
  WS02001212           JUNCTION     0.37     0.43     5.49     0  03:00        0.43
  WS02001213           JUNCTION     0.60     0.67     5.44     0  03:01        0.67
  WS02003069           JUNCTION     0.41     0.50     5.08     0  03:01        0.50
  WS02003072           JUNCTION     0.48     0.56     4.94     0  03:02        0.56
  WS02003073           JUNCTION     0.29     0.34     4.41     0  03:02        0.34
  WS02003060           JUNCTION     0.37     0.44     5.37     0  03:01        0.44
  WS02003066           JUNCTION     0.22     0.27     5.82     0  02:58        0.27
  WS02003059           JUNCTION     0.65     0.73     5.42     0  03:01        0.73
  WS02003067           JUNCTION     0.54     0.65     5.97     0  02:58        0.65
  WS02004401           JUNCTION     0.62     0.75     6.75     0  02:55        0.75
  WS02004402           JUNCTION     0.66     0.79     6.75     0  02:55        0.79
  WS02004403           JUNCTION     0.68     0.80     6.73     0  02:56        0.80
  WS02004404           JUNCTION     0.76     0.88     6.73     0  02:56        0.88
  WS02004406           JUNCTION     0.77     0.88     6.71     0  02:56        0.88
  WS02004409           JUNCTION     0.44     0.58     6.35     0  02:57        0.58
  WS02004410           JUNCTION     0.46     0.59     6.31     0  02:57        0.59
  WS02004411           JUNCTION     0.48     0.61     6.29     0  02:58        0.61
  WS02004412           JUNCTION     0.50     0.62     6.26     0  02:58        0.62
  WS02004413           JUNCTION     0.66     0.79     6.26     0  02:58        0.79
  WS02004405           JUNCTION     0.75     0.88     6.73     0  02:56        0.88
  WS02006109           JUNCTION     0.69     0.84     7.45     0  02:50        0.84
  WS02006110           JUNCTION     0.70     0.82     7.41     0  02:50        0.82
  WS02006111           JUNCTION     0.20     0.25     6.96     0  02:51        0.25
  WS02006112           JUNCTION     0.79     0.93     6.82     0  02:54        0.93
  WS02006113           JUNCTION     0.31     0.39     7.28     0  02:50        0.39
  WS02006115           JUNCTION     0.51     0.65     6.79     0  02:55        0.65
  WS02006116           JUNCTION     0.60     0.73     6.77     0  02:55        0.73
  WS02006230           JUNCTION     0.64     0.83     7.57     0  02:51        0.83
  WS02006231           JUNCTION     0.42     0.54     7.66     0  02:52        0.54
  WS02006232           JUNCTION     0.56     0.68     7.72     0  02:54        0.68
  WS02006234           JUNCTION     0.47     0.60     7.75     0  02:54        0.60
  WS02006235           JUNCTION     0.50     0.63     7.79     0  02:53        0.63
  WS02006238           JUNCTION     0.52     0.65     7.79     0  02:54        0.65
  WS02006240           JUNCTION     0.41     0.54     7.83     0  02:54        0.54
  WS02006242           JUNCTION     0.46     0.59     7.86     0  02:54        0.59
  WS02006243           JUNCTION     0.34     0.46     7.88     0  02:55        0.46
  WS02006245           JUNCTION     0.33     0.44     7.92     0  02:55        0.44
  WS02006247           JUNCTION     0.35     0.46     7.96     0  02:55        0.46
  WS02006248           JUNCTION     0.30     0.39     7.98     0  02:54        0.39
  WS02006249           JUNCTION     0.34     0.43     8.03     0  02:53        0.43
  WS02006239           JUNCTION     0.47     0.60     7.81     0  02:54        0.60
  WS02006251           JUNCTION     0.33     0.41     8.08     0  02:52        0.41
  WS02006252           JUNCTION     0.29     0.35     8.59     0  02:38        0.35
  WS02006253           JUNCTION     0.35     0.44     8.08     0  02:52        0.44
  WS02006256           JUNCTION     0.95     2.35     9.28     0  00:00        1.19
  WS02004138           JUNCTION     0.15     0.17     7.42     0  00:00        0.17
  WS02004407           JUNCTION     0.20     0.26     6.57     0  02:56        0.26
  WS02006228           JUNCTION     0.68     0.84     7.50     0  02:50        0.84
  WS02006229           JUNCTION     0.65     0.83     7.52     0  02:50        0.83
  WS02006280           JUNCTION     0.05     0.11     8.38     0  02:24        0.11
  WS02006284           JUNCTION     0.34     0.44     8.83     0  02:24        0.44
  WS02006287           JUNCTION     0.07     0.16     9.12     0  02:24        0.16
  WSF200               JUNCTION     0.20     0.26     5.49     0  02:58        0.26
  HS02004901           JUNCTION     0.10     0.19    10.01     0  02:22        0.19
  HS02004881           JUNCTION     0.00     0.02     9.05     0  02:23        0.02
  HS02004876           JUNCTION     0.03     0.09     9.12     0  02:23        0.09
  HS02004870           JUNCTION     0.01     0.03     9.32     0  02:23        0.03
  HS02004862           JUNCTION     0.01     0.03     9.42     0  02:25        0.03
  HS02004856           JUNCTION     0.07     0.09     9.52     0  02:24        0.09
  HS02004852           JUNCTION     0.00     0.02     9.53     0  02:25        0.02
  HS02004848           JUNCTION     0.00     0.02     9.62     0  02:22        0.02
  HS02004842           JUNCTION     0.33     0.35     9.62     0  02:21        0.35
  HS02004837           JUNCTION     0.02     0.04     9.62     0  02:22        0.04
  HS02004830           JUNCTION     0.03     0.05     9.52     0  02:22        0.05
  HS02004824           JUNCTION     0.02     0.03     9.43     0  02:26        0.03
  HS02004817           JUNCTION     0.42     0.49     9.34     0  02:24        0.49
  HS02004807           JUNCTION     0.11     0.16     9.33     0  02:24        0.16
  HS02004802           JUNCTION     0.14     0.20     9.33     0  02:24        0.20
  HS02004799           JUNCTION     0.09     0.20     9.41     0  02:22        0.20
  HS02004792           JUNCTION     0.02     0.07     9.59     0  02:21        0.07
  HS02004788           JUNCTION     0.02     0.05     9.95     0  02:23        0.05
  HS02004785           JUNCTION     0.03     0.10    10.00     0  02:22        0.10
  HS02004777           JUNCTION     0.13     0.21    10.01     0  02:22        0.21
  HS02004770           JUNCTION     0.10     0.18    10.01     0  02:22        0.18
  HS02004480           JUNCTION     0.06     0.15     9.39     0  02:22        0.15
  HS02004479           JUNCTION     0.09     0.19     9.39     0  02:23        0.19
  HS02004478           JUNCTION     0.05     0.09     9.32     0  02:23        0.09
  YS02001745           JUNCTION     0.06     0.09     7.60     0  03:01        0.09
  YS02001748           JUNCTION     0.08     0.14     7.21     0  03:11        0.13
  YS02001751           JUNCTION     0.22     0.34     7.22     0  03:16        0.34
  YS02001754           JUNCTION     0.47     0.64     7.25     0  03:50        0.64
  YS02001762           JUNCTION     0.67     0.82     7.22     0  03:08        0.81
  YS02001765           JUNCTION     0.62     0.77     7.22     0  03:08        0.77
  YS02001767           JUNCTION     0.58     0.73     7.22     0  03:08        0.73
  YS02001770           JUNCTION     0.58     0.72     7.22     0  03:07        0.72
  YS02001774           JUNCTION     0.64     0.79     7.22     0  03:07        0.79
  YS02001779           JUNCTION     0.40     0.53     7.22     0  03:07        0.53
  YS02001882           JUNCTION     0.23     0.34     7.05     0  03:00        0.34
  YS02001884           JUNCTION     0.33     0.44     7.05     0  03:01        0.44
  YS02001759           JUNCTION     0.70     0.85     7.22     0  03:09        0.85
  YS02001887           JUNCTION     0.40     0.52     7.05     0  03:01        0.52
  YS02001890           JUNCTION     0.43     0.55     7.05     0  03:00        0.55
  YS02001898           JUNCTION     0.20     0.30     7.04     0  03:01        0.30
  YS02001901           JUNCTION     0.32     0.43     7.04     0  03:01        0.43
  YS02001904           JUNCTION     0.30     0.41     7.04     0  03:01        0.41
  YS02001907           JUNCTION     0.63     0.75     7.04     0  03:01        0.75
  YS02001910           JUNCTION     0.42     0.53     7.04     0  03:01        0.53
  YS02001915           JUNCTION     0.22     0.32     7.04     0  03:00        0.32
  YS02001918           JUNCTION     0.06     0.07     7.14     0  03:04        0.07
  YS02001619           JUNCTION     0.18     0.29     7.22     0  03:03        0.29
  YS02001629           JUNCTION     0.53     0.67     7.22     0  03:07        0.67
  YS02001641           JUNCTION     0.63     0.78     7.22     0  03:05        0.78
  YS02001644           JUNCTION     0.64     0.79     7.22     0  03:06        0.78
  YS02001652           JUNCTION     0.48     0.63     7.22     0  03:06        0.62
  YS02001655           JUNCTION     0.25     0.37     7.22     0  03:07        0.37
  YS02001920           JUNCTION     0.15     0.17     7.18     0  03:03        0.17
  YS02001923           JUNCTION     0.05     0.06     7.32     0  03:02        0.06
  YS02001926           JUNCTION     0.11     0.14     7.58     0  03:02        0.14
  YS02001929           JUNCTION     0.05     0.06     7.76     0  03:01        0.06
  YS02001658           JUNCTION     0.06     0.10     7.24     0  02:53        0.10
  YS02001661           JUNCTION     0.13     0.17     7.57     0  02:53        0.17
  YS02001664           JUNCTION     0.06     0.09     8.01     0  02:53        0.09
  YS02001622           JUNCTION     0.20     0.31     7.22     0  03:03        0.31
  YS02001633           JUNCTION     0.62     0.76     7.22     0  03:07        0.76
  YS02001649           JUNCTION     0.67     0.83     7.22     0  03:09        0.82
  YS02001757           JUNCTION     0.80     0.96     7.22     0  03:07        0.96
  YS02001895           JUNCTION     0.20     0.30     7.05     0  03:01        0.30
  YS02001625           JUNCTION     0.48     0.61     7.22     0  03:08        0.61
  YS02163301           JUNCTION     0.56     0.70     7.22     0  03:08        0.70
  YS02163601           JUNCTION     0.67     0.82     7.22     0  03:05        0.82
  YS02164001           JUNCTION     0.61     0.76     7.22     0  03:09        0.76
  YS02001647           JUNCTION     0.47     0.61     7.22     0  03:10        0.61
  YSB1154              JUNCTION     0.23     0.33     9.39     0  02:22        0.33
  YSB6556              JUNCTION     0.12     0.22     9.39     0  02:23        0.22
  YSB1174              JUNCTION     0.18     0.28     9.39     0  02:22        0.28
  YSB1171              JUNCTION     0.38     0.49     9.39     0  02:23        0.49
  YS02006553           JUNCTION     0.63     0.75     7.04     0  03:01        0.75
  YS02006561           JUNCTION     0.11     0.17     6.83     0  03:00        0.17
  YS02006556           JUNCTION     0.61     0.72     7.03     0  03:00        0.72
  YS02006558           JUNCTION     0.65     0.77     7.03     0  03:00        0.77
  YS02001783           JUNCTION     0.19     0.29     6.43     0  03:01        0.29
  YS02001784           JUNCTION     0.22     0.32     6.39     0  03:01        0.32
  YS02001786           JUNCTION     0.19     0.28     6.31     0  03:01        0.28
  YS02001788           JUNCTION     0.13     0.20     6.18     0  03:02        0.20
  YS02001790           JUNCTION     0.16     0.24     5.89     0  03:02        0.24
  YS02001791           JUNCTION     0.11     0.16     5.63     0  03:02        0.16
  YS02001793           JUNCTION     0.07     0.11     4.94     0  03:02        0.11
  WS02004139           JUNCTION     0.59     0.65     5.56     0  03:00        0.65
  WSC                  OUTFALL      0.28     0.34     1.01     0  03:03        0.34
  3                    OUTFALL      0.04     0.23     6.23     0  00:00        0.19
  4                    OUTFALL      0.00     0.00     7.00     0  00:00        0.00
  5                    OUTFALL      0.00     0.00     5.00     0  00:00        0.00
  JK-storage           STORAGE      0.06     3.00     3.80     0  00:00        2.39
  CC-storage           STORAGE      0.04     0.11     7.11     0  04:13        0.11
  XR-storage           STORAGE      1.92     5.00     3.00     0  00:00        4.96
  
  
  *******************
  Node Inflow Summary
  *******************
  
  -------------------------------------------------------------------------------------------------
                                  Maximum  Maximum                  Lateral       Total        Flow
                                  Lateral    Total  Time of Max      Inflow      Inflow     Balance
                                   Inflow   Inflow   Occurrence      Volume      Volume       Error
  Node                 Type           LPS      LPS  days hr:min    10^6 ltr    10^6 ltr     Percent
  -------------------------------------------------------------------------------------------------
  WS02001211           JUNCTION      7.35   293.14     0  06:31       0.207        7.01       0.502
  WS02001212           JUNCTION      0.00   293.69     0  06:31           0        6.98       0.292
  WS02001213           JUNCTION      0.00   294.18     0  06:30           0        6.96       0.317
  WS02003069           JUNCTION      0.32   721.02     0  03:01     0.00902          13       0.197
  WS02003072           JUNCTION      0.00   720.99     0  03:02           0          13       0.251
  WS02003073           JUNCTION      1.82   722.79     0  03:02      0.0514          13       0.276
  WS02003060           JUNCTION     16.53   720.73     0  03:00       0.466        13.1       0.188
  WS02003066           JUNCTION      0.00   412.74     0  02:58           0         5.7       0.058
  WS02003059           JUNCTION      0.00   295.18     0  06:30           0        6.94       0.512
  WS02003067           JUNCTION      0.00   412.72     0  02:58           0        5.71       0.130
  WS02004401           JUNCTION      0.00   413.84     0  02:53           0        5.89       0.284
  WS02004402           JUNCTION      0.00   413.69     0  02:55           0        5.88       0.276
  WS02004403           JUNCTION      0.00   413.65     0  02:55           0        5.86       0.256
  WS02004404           JUNCTION      0.16   413.79     0  02:56     0.00457        5.85       0.199
  WS02004406           JUNCTION      0.00   413.82     0  02:56           0        5.82       0.489
  WS02004409           JUNCTION      0.00   413.75     0  02:56           0        5.79       0.190
  WS02004410           JUNCTION      0.00   413.43     0  02:57           0        5.78       0.225
  WS02004411           JUNCTION      0.00   413.15     0  02:57           0        5.77       0.240
  WS02004412           JUNCTION      0.00   412.96     0  02:57           0        5.75       0.272
  WS02004413           JUNCTION      0.00   412.82     0  02:58           0        5.74       0.421
  WS02004405           JUNCTION      0.04   413.82     0  02:56     0.00107        5.84       0.303
  WS02006109           JUNCTION      1.23   413.05     0  02:50      0.0347        5.97       0.309
  WS02006110           JUNCTION      0.00   413.05     0  02:50           0        5.95       0.251
  WS02006111           JUNCTION      0.00   423.09     0  02:50           0        5.93       0.044
  WS02006112           JUNCTION      5.39   416.39     0  02:50      0.0171        5.95       0.383
  WS02006113           JUNCTION      0.00   413.10     0  02:50           0        5.94       0.103
  WS02006115           JUNCTION      0.00   414.82     0  02:51           0        5.92       0.242
  WS02006116           JUNCTION      0.00   414.19     0  02:52           0        5.91       0.243
  WS02006230           JUNCTION     10.28   329.33     0  02:54        0.29        5.31       0.190
  WS02006231           JUNCTION      0.00   318.85     0  02:54           0        5.03       0.129
  WS02006232           JUNCTION      0.00   318.79     0  02:54           0        5.04       0.236
  WS02006234           JUNCTION      0.00   318.73     0  02:54           0        5.04       0.067
  WS02006235           JUNCTION      0.00   318.73     0  02:53           0        5.07       0.153
  WS02006238           JUNCTION      0.00   238.05     0  03:20           0        3.25       0.137
  WS02006240           JUNCTION      0.00   222.78     0  03:21           0        3.23       0.169
  WS02006242           JUNCTION      0.00   216.99     0  03:21           0        3.23       0.224
  WS02006243           JUNCTION      0.00   214.40     0  02:52           0        3.23       0.064
  WS02006245           JUNCTION      0.00   214.61     0  02:50           0        3.23       0.118
  WS02006247           JUNCTION      0.00   215.53     0  02:44           0        3.23       0.101
  WS02006248           JUNCTION      0.00   216.33     0  02:43           0        3.23       0.044
  WS02006249           JUNCTION      0.00   217.03     0  02:43           0        3.24       0.173
  WS02006239           JUNCTION      0.00   230.12     0  03:20           0        3.24       0.181
  WS02006251           JUNCTION      0.08   218.07     0  02:39     0.00217        3.25       0.125
  WS02006252           JUNCTION      0.00   200.00     0  02:38           0        3.15       0.008
  WS02006253           JUNCTION      0.83    23.01     0  02:23     0.00222       0.102       1.346
  WS02006256           JUNCTION      0.00   600.00     0  00:00           0        2.94       0.054
  WS02004138           JUNCTION      0.00   285.00     0  00:00           0        6.84       0.075
  WS02004407           JUNCTION      0.00   413.77     0  02:56           0        5.79       0.086
  WS02006228           JUNCTION      0.00   411.82     0  02:50           0        5.95       0.204
  WS02006229           JUNCTION      0.00   411.83     0  02:49           0        5.96       0.146
  WS02006280           JUNCTION      0.00   124.62     0  02:24           0       0.658       0.011
  WS02006284           JUNCTION      0.10   124.62     0  02:24      0.0027       0.659       0.173
  WS02006287           JUNCTION      0.00   124.54     0  02:23           0       0.657       0.106
  WSF200               JUNCTION      0.00   412.73     0  02:58           0         5.7       0.050
  HS02004901           JUNCTION      6.68     6.68     0  02:14      0.0206      0.0207       9.259
  HS02004881           JUNCTION      2.69    22.38     0  02:23     0.00897      0.0929       0.243
  HS02004876           JUNCTION      4.25    19.93     0  02:23      0.0171      0.0845       0.618
  HS02004870           JUNCTION      4.73    15.77     0  02:22       0.017      0.0675       0.157
  HS02004862           JUNCTION      3.94    11.37     0  02:23      0.0225      0.0507       0.330
  HS02004856           JUNCTION      3.50     7.47     0  02:22      0.0128      0.0296       5.099
  HS02004852           JUNCTION      0.00     4.20     0  02:23           0      0.0169       0.285
  HS02004848           JUNCTION      7.64     7.64     0  02:25        0.04        0.04       0.106
  HS02004842           JUNCTION      0.00     4.47     0  00:03           0      0.0361      56.241
  HS02004837           JUNCTION     13.90    17.17     0  02:21       0.209       0.232       0.353
  HS02004830           JUNCTION      0.15    17.32     0  02:22     0.00423       0.222       0.558
  HS02004824           JUNCTION      8.57    25.78     0  02:26      0.0525       0.273       0.197
  HS02004817           JUNCTION      0.60    26.38     0  02:26      0.0169        0.29       6.102
  HS02004807           JUNCTION      8.91    34.49     0  02:24      0.0312       0.304       1.408
  HS02004802           JUNCTION      0.00    34.56     0  02:26           0         0.3       1.372
  HS02004799           JUNCTION      6.84    76.70     0  02:21      0.0252       0.323       0.701
  HS02004792           JUNCTION     30.79    70.06     0  02:21       0.113       0.298       0.139
  HS02004788           JUNCTION     10.94    40.90     0  02:22      0.0821       0.186       0.209
  HS02004785           JUNCTION      0.15    30.37     0  02:21     0.00423       0.106       0.453
  HS02004777           JUNCTION      0.03    30.69     0  02:18    0.000846       0.106       5.124
  HS02004770           JUNCTION     26.01    31.73     0  02:16      0.0879       0.107       2.986
  HS02004480           JUNCTION      0.00    90.31     0  02:22           0       0.373       0.184
  HS02004479           JUNCTION      0.00    13.92     0  02:24           0      0.0624       1.179
  HS02004478           JUNCTION      0.00   124.55     0  02:23           0       0.658       0.100
  YS02001745           JUNCTION     41.47    41.47     0  03:01       0.487       0.487       0.074
  YS02001748           JUNCTION      0.04    41.51     0  03:01     0.00127       0.487       0.049
  YS02001751           JUNCTION      0.01   102.16     0  03:50     0.00031       0.623       0.258
  YS02001754           JUNCTION      0.26   223.89     0  03:56     0.00733        1.05       0.986
  YS02001762           JUNCTION      0.00    62.30     0  03:18           0       0.619       2.235
  YS02001765           JUNCTION      0.00    88.73     0  03:47           0       0.608       2.397
  YS02001767           JUNCTION      0.54    66.92     0  03:54      0.0151       0.614       3.225
  YS02001770           JUNCTION     54.05    59.94     0  02:50       0.582       0.604       2.756
  YS02001774           JUNCTION      0.00    29.44     0  02:30           0        0.09      19.376
  YS02001779           JUNCTION      0.01    13.95     0  03:33    0.000141      0.0535      10.624
  YS02001882           JUNCTION      0.00     2.31     0  02:12           0     0.00356      69.181
  YS02001884           JUNCTION      0.00     7.06     0  02:12           0      0.0145      43.490
  YS02001759           JUNCTION     52.91   126.07     0  03:41       0.546        1.14       1.403
  YS02001887           JUNCTION     70.23    70.23     0  02:50       0.667       0.673       0.997
  YS02001890           JUNCTION      0.00    69.87     0  02:53           0       0.654       1.130
  YS02001898           JUNCTION      0.00    69.60     0  02:56           0       0.644       0.288
  YS02001901           JUNCTION      0.00    69.59     0  02:56           0       0.644       0.785
  YS02001904           JUNCTION      0.00    69.34     0  02:57           0       0.643       0.732
  YS02001907           JUNCTION      0.00   126.36     0  03:02           0        1.37       1.577
  YS02001910           JUNCTION      0.00    57.16     0  03:01           0       0.736       1.311
  YS02001915           JUNCTION     37.43    57.01     0  03:01        0.42        0.74       0.538
  YS02001918           JUNCTION      0.00    19.77     0  03:03           0        0.32       0.267
  YS02001619           JUNCTION     36.31    36.31     0  03:01       0.413       0.413       0.135
  YS02001629           JUNCTION      0.00    39.18     0  02:39           0       0.397       1.382
  YS02001641           JUNCTION      0.00    82.07     0  03:13           0       0.842       1.519
  YS02001644           JUNCTION     39.35   116.98     0  03:04       0.466        1.29       1.201
  YS02001652           JUNCTION      0.00    71.34     0  03:46           0       0.536       1.679
  YS02001655           JUNCTION      0.15    49.68     0  02:53     0.00434       0.491       0.659
  YS02001920           JUNCTION      2.87    19.78     0  03:02      0.0809       0.322       0.538
  YS02001923           JUNCTION      0.04    16.91     0  03:02     0.00106       0.241       0.095
  YS02001926           JUNCTION      0.05    16.93     0  03:01     0.00147       0.242       0.690
  YS02001929           JUNCTION     16.89    16.89     0  03:01       0.241       0.241       0.090
  YS02001658           JUNCTION      0.00    49.53     0  02:53           0       0.481       0.040
  YS02001661           JUNCTION      0.00    49.53     0  02:53           0       0.481       0.153
  YS02001664           JUNCTION     49.53    49.53     0  02:53       0.482       0.482       0.031
  YS02001622           JUNCTION      0.00    37.02     0  02:59           0       0.413       0.614
  YS02001633           JUNCTION     40.01    79.01     0  02:39       0.481       0.865       2.144
  YS02001649           JUNCTION      0.00   183.91     0  03:41           0        1.77       1.331
  YS02001757           JUNCTION      0.00   424.67     0  03:48           0        3.64       1.915
  YS02001895           JUNCTION      0.00    69.68     0  02:55           0       0.647       0.494
  YS02001625           JUNCTION      0.00    37.63     0  02:47           0        0.41       3.704
  YS02163301           JUNCTION      0.00    41.97     0  03:13           0       0.397       3.138
  YS02163601           JUNCTION      0.11    80.35     0  03:13      0.0031       0.846       2.290
  YS02164001           JUNCTION      0.00    80.41     0  03:13           0       0.836       1.399
  YS02001647           JUNCTION      0.00   119.33     0  03:06           0        1.26       0.942
  YSB1154              JUNCTION      7.56     7.56     0  02:19      0.0305      0.0319       4.738
  YSB6556              JUNCTION      0.00     7.50     0  02:21           0      0.0329       3.922
  YSB1174              JUNCTION      7.63     7.63     0  02:13      0.0223      0.0234       5.819
  YSB1171              JUNCTION      0.00    13.91     0  02:21           0      0.0619      11.373
  YS02006553           JUNCTION      0.00   126.54     0  03:03           0        1.36       1.027
  YS02006561           JUNCTION      0.00   185.21     0  03:00           0        1.92       0.028
  YS02006556           JUNCTION      0.00   126.72     0  03:03           0        1.36       0.736
  YS02006558           JUNCTION     59.48   185.22     0  03:00       0.607        1.94       0.222
  YS02001783           JUNCTION      0.00   185.21     0  03:00           0        1.92       0.065
  YS02001784           JUNCTION      1.06   186.27     0  03:01      0.0299        1.94       0.109
  YS02001786           JUNCTION      0.06   186.32     0  03:01     0.00159        1.94       0.106
  YS02001788           JUNCTION      0.07   186.39     0  03:02       0.002        1.94       0.059
  YS02001790           JUNCTION      0.15   186.54     0  03:02     0.00437        1.95       0.077
  YS02001791           JUNCTION      0.00   186.53     0  03:02           0        1.95       0.037
  YS02001793           JUNCTION      0.00   186.53     0  03:02           0        1.94       0.015
  WS02004139           JUNCTION      0.32   290.33     0  00:00     0.00905        6.84       0.561
  WSC                  OUTFALL       0.00   722.78     0  03:03           0          13       0.000
  3                    OUTFALL       0.00   597.65     0  00:00           0        1.09       0.000
  4                    OUTFALL       0.00     0.00     0  00:00           0           0       0.000 ltr
  5                    OUTFALL       0.00     0.00     0  00:00           0           0       0.000 ltr
  JK-storage           STORAGE       0.00   186.53     0  03:02           0         2.1     -28.693
  CC-storage           STORAGE       0.00   303.93     0  03:07           0        3.15      -0.000
  XR-storage           STORAGE     267.86   267.86     0  03:01        6.45        7.05      -0.205
  
  
  **********************
  Node Surcharge Summary
  **********************
  
  Surcharging occurs when water rises above the top of the highest conduit.
  ---------------------------------------------------------------------
                                               Max. Height   Min. Depth
                                   Hours       Above Crown    Below Rim
  Node                 Type      Surcharged         Meters       Meters
  ---------------------------------------------------------------------
  WS02006109           JUNCTION        0.31          0.016        1.804
  WS02006256           JUNCTION        0.01          1.050        0.000
  WS02006228           JUNCTION        0.28          0.015        2.185
  
  
  *********************
  Node Flooding Summary
  *********************
  
  Flooding refers to all water that overflows a node, whether it ponds or not.
  --------------------------------------------------------------------------
                                                             Total   Maximum
                                 Maximum   Time of Max       Flood    Ponded
                        Hours       Rate    Occurrence      Volume     Depth
  Node                 Flooded       LPS   days hr:min    10^6 ltr    Meters
  --------------------------------------------------------------------------
  WS02006256              0.01    406.11      0  00:00       0.001     0.000
  
  
  **********************
  Storage Volume Summary
  **********************
  
  --------------------------------------------------------------------------------------------------
                         Average     Avg  Evap Exfil       Maximum     Max    Time of Max    Maximum
                          Volume    Pcnt  Pcnt  Pcnt        Volume    Pcnt     Occurrence    Outflow
  Storage Unit           1000 m3    Full  Loss  Loss       1000 m3    Full    days hr:min        LPS
  --------------------------------------------------------------------------------------------------
  JK-storage               0.003       1     0     0         0.151      52       0  00:00     600.00
  CC-storage               0.124       1     0     0         0.306       2       0  04:13     200.00
  XR-storage               0.231      25     0     0         0.600      65       0  00:00     285.00
  
  
  ***********************
  Outfall Loading Summary
  ***********************
  
  -----------------------------------------------------------
                         Flow       Avg       Max       Total
                         Freq      Flow      Flow      Volume
  Outfall Node           Pcnt       LPS       LPS    10^6 ltr
  -----------------------------------------------------------
  WSC                   99.99    524.01    722.78      13.007
  3                     64.26     89.09    597.65       1.089
  4                      0.00      0.00      0.00       0.000
  5                      0.00      0.00      0.00       0.000
  -----------------------------------------------------------
  System                41.06    613.10    956.26      14.095
  
  
  ********************
  Link Flow Summary
  ********************
  
  -----------------------------------------------------------------------------
                                 Maximum  Time of Max   Maximum    Max/    Max/
                                  |Flow|   Occurrence   |Veloc|    Full    Full
  Link                 Type          LPS  days hr:min     m/sec    Flow   Depth
  -----------------------------------------------------------------------------
  WS02003066WSF200     CONDUIT    412.73     0  02:58      2.61    0.07    0.20
  WS02006287WS02006284 CONDUIT    124.53     0  02:24      1.36    0.06    0.17
  WS02006284WS02006280 CONDUIT    124.62     0  02:24      1.60    0.05    0.16
  WS02006280WS02006229 CONDUIT    124.62     0  02:24      2.57    0.03    0.11
  WS02006229WS02006228 CONDUIT    411.82     0  02:50      0.85    1.36    1.00
  WS02006256WS02006235 CONDUIT    177.52     0  00:01      2.73    1.88    1.00
  WS02006253WS02006251 CONDUIT     44.47     0  06:10      0.40    0.13    0.60
  WS02006252WS02006251 CONDUIT    200.14     0  02:38      2.17    0.73    0.76
  WS02006251WS02006249 CONDUIT    217.03     0  02:43      0.93    0.63    0.60
  WS02006249WS02006248 CONDUIT    216.33     0  02:43      1.01    1.19    0.57
  WS02006248WS02006247 CONDUIT    215.53     0  02:44      0.97    0.47    0.60
  WS02006247WS02006245 CONDUIT    214.61     0  02:50      0.92    1.70    0.63
  WS02006245WS02006243 CONDUIT    214.40     0  02:52      0.95    0.63    0.64
  WS02006243WS02006242 CONDUIT    216.99     0  03:21      0.82    0.46    0.73
  WS02006242WS02006240 CONDUIT    222.78     0  03:21      0.77    0.88    0.80
  WS02006240WS02006239 CONDUIT    230.12     0  03:20      0.84    0.72    0.79
  WS02006239WS02006238 CONDUIT    238.05     0  03:20      0.77    0.76    0.88
  WS02006238WS02006235 CONDUIT    243.07     0  03:20      1.32    0.54    0.91
  WS02006235WS02006234 CONDUIT    318.73     0  02:54      0.94    3.36    0.85
  WS02006234WS02006232 CONDUIT    318.79     0  02:54      1.17    0.64    0.91
  WS02006232WS02006231 CONDUIT    318.85     0  02:54      0.93    0.67    0.86
  WS02006231WS02006230 CONDUIT    319.05     0  02:54      1.29    4.84    0.70
  WS02006230WS02006229 CONDUIT    329.89     0  02:55      0.86    7.34    1.00
  WS02006228WS02006109 CONDUIT    411.82     0  02:50      0.82    1.80    1.00
  WS02006116WS02004401 CONDUIT    413.84     0  02:53      0.66    0.57    0.74
  WS02006115WS02006116 CONDUIT    414.19     0  02:52      0.76    0.53    0.66
  WS02006113WS02006111 CONDUIT    423.09     0  02:50      2.24    0.51    0.40
  WS02006112WS02006115 CONDUIT    414.82     0  02:51      0.63    0.24    0.79
  WS02006111WS02006112 CONDUIT    414.06     0  02:51      1.20    0.20    0.65
  WS02006110WS02006113 CONDUIT    413.10     0  02:50      1.03    0.38    0.74
  WS02006109WS02006110 CONDUIT    413.05     0  02:50      0.84    0.79    0.95
  WS02004411WS02004412 CONDUIT    412.96     0  02:57      0.82    0.59    0.62
  WS02004401WS02004402 CONDUIT    413.69     0  02:55      0.64    0.50    0.77
  WS02004413WS02003067 CONDUIT    412.72     0  02:58      0.96    0.18    0.54
  WS02004412WS02004413 CONDUIT    412.82     0  02:58      0.70    0.28    0.70
  WS02004410WS02004411 CONDUIT    413.15     0  02:57      0.84    0.56    0.60
  WS02004409WS02004410 CONDUIT    413.43     0  02:57      0.87    0.53    0.58
  WS02004407WS02004409 CONDUIT    413.75     0  02:56      1.34    0.15    0.42
  WS02004406WS02004407 CONDUIT    413.77     0  02:56      0.89    0.18    0.57
  WS02004405WS02004406 CONDUIT    413.82     0  02:56      0.57    0.82    0.88
  WS02004404WS02004405 CONDUIT    413.78     0  02:56      0.57    4.05    0.88
  WS02004403WS02004404 CONDUIT    413.63     0  02:56      0.59    0.30    0.84
  WS02004402WS02004403 CONDUIT    413.65     0  02:55      0.62    0.59    0.80
  WS02004139WS02001211 CONDUIT    285.80     0  06:31      0.80    0.36    0.52
  WS02004138WS02004139 CONDUIT    290.01     0  00:00      3.34    0.06    0.38
  WS02003067WS02003066 CONDUIT    412.74     0  02:58      1.04    0.13    0.38
  WS02001213WS02003059 CONDUIT    295.18     0  06:30      0.80    0.49    0.69
  WS02001212WS02001213 CONDUIT    294.18     0  06:30      1.19    0.45    0.39
  WS02001211WS02001212 CONDUIT    293.69     0  06:31      0.67    0.22    0.57
  WS02003072WS02003073 CONDUIT    720.97     0  03:02      1.57    1.56    0.43
  WS02003069WS02003072 CONDUIT    720.99     0  03:02      1.49    0.35    0.44
  WS02003060WS02003069 CONDUIT    720.70     0  03:01      1.75    0.28    0.39
  WS02003059WS02003060 CONDUIT    296.68     0  06:29      0.82    0.19    0.59
  HS02004901HS02004770 CONDUIT      5.99     0  02:21      0.03    0.02    0.26
  HS02004876HS02004881 CONDUIT     19.93     0  02:23      0.39    0.21    0.07
  HS02004870HS02004876 CONDUIT     15.76     0  02:23      0.27    0.01    0.08
  HS02004842HS02004848 CONDUIT      3.65     0  02:35      0.02    0.00    0.26
  HS02004837HS02004842 CONDUIT      4.47     0  00:03      0.41    0.00    0.28
  HS02004830HS02004837 CONDUIT     17.17     0  02:22      0.38    0.02    0.06
  HS02004824HS02004830 CONDUIT     17.32     0  02:23      0.43    0.02    0.06
  HS02004817HS02004824 CONDUIT     25.78     0  02:26      0.17    0.01    0.37
  HS02004770HS02004777 CONDUIT     30.66     0  02:18      0.16    0.06    0.28
  HS02004799HS02004480 CONDUIT     76.57     0  02:21      0.45    0.10    0.24
  HS02004792HS02004799 CONDUIT     70.02     0  02:21      0.52    0.04    0.19
  HS02004788HS02004792 CONDUIT     40.87     0  02:23      0.69    0.03    0.09
  HS02004785HS02004788 CONDUIT     30.25     0  02:23      0.40    0.23    0.11
  HS02004777HS02004785 CONDUIT     30.22     0  02:21      0.19    0.04    0.22
  HS02004480HS02004478 CONDUIT     90.29     0  02:22      0.77    0.38    0.17
  HS02004479HS02004480 CONDUIT     14.03     0  02:24      0.16    0.01    0.24
  HS02004862HS02004870 CONDUIT     11.34     0  02:24      0.37    0.01    0.04
  HS02004848HS02004852 CONDUIT      4.20     0  02:23      0.24    0.00    0.03
  HS02004856HS02004862 CONDUIT      7.45     0  02:24      0.27    0.01    0.04
  HS02004852HS02004856 CONDUIT      4.17     0  02:25      0.08    0.00    0.08
  HS02004802HS02004478 CONDUIT     34.71     0  02:27      0.24    0.03    0.21
  HS02004478WS02006287 CONDUIT    124.54     0  02:23      1.05    0.03    0.13
  HS02004817HS02004807 CONDUIT     26.61     0  02:28      0.08    0.02    0.47
  HS02004807HS02004802 CONDUIT     34.56     0  02:26      0.19    0.07    0.25
  YS02001759YS02001757 CONDUIT    119.27     0  02:59      0.16    0.08    0.90
  YS02001762YS02001759 CONDUIT     89.76     0  03:53      0.17    0.10    0.83
  YS02001765YS02001762 CONDUIT     62.30     0  03:18      0.22    0.06    0.79
  YS02001770YS02001767 CONDUIT     63.68     0  02:59      0.30    0.25    0.72
  YS02001774YS02001770 CONDUIT     29.44     0  02:30      0.12    0.02    0.74
  YS02001779YS02001774 CONDUIT     14.10     0  03:33      0.07    0.01    0.66
  YS02001649YS02001757 CONDUIT    178.58     0  03:07      0.24    0.11    0.89
  YS02001767YS02001765 CONDUIT     88.73     0  03:47      0.26    0.11    0.74
  YS02006561YS02001783 CONDUIT    185.21     0  03:00      1.55    0.10    0.29
  YS02001783YS02001784 CONDUIT    185.21     0  03:01      1.04    0.26    0.39
  YS02001784YS02001785 CONDUIT    186.27     0  03:01      1.08    0.43    0.37
  YS02001788YS02001790 CONDUIT    186.38     0  03:02      1.63    0.14    0.28
  YS02001790YS02001791 CONDUIT    186.53     0  03:02      1.87    0.20    0.25
  YS02001791YS02001793 CONDUIT    186.53     0  03:02      3.65    0.08    0.17
  YS02001910YS02001907 CONDUIT     57.14     0  03:01      0.49    0.03    0.63
  YS02001786YS02001788 CONDUIT    186.32     0  03:02      1.49    0.36    0.30
  YS02001915YS02001910 CONDUIT     57.16     0  03:01      0.44    0.03    0.42
  YS02001918YS02001915 CONDUIT     19.75     0  03:04      0.44    0.01    0.20
  YS02001923YS02001920 CONDUIT     16.91     0  03:02      0.34    0.01    0.12
  YS02001926YS02001923 CONDUIT     16.87     0  03:02      0.39    0.02    0.10
  YS02001929YS02001926 CONDUIT     16.88     0  03:01      0.41    0.01    0.10
  YS02001920YS02001918 CONDUIT     19.77     0  03:03      0.37    0.02    0.12
  YS02001629YS02163301 CONDUIT     41.97     0  03:13      0.09    0.05    0.68
  YS02001619YS02001622 CONDUIT     37.02     0  02:59      0.56    0.05    0.30
  YS02001622YS02001625 CONDUIT     37.63     0  02:47      0.19    0.02    0.46
  YS02001625YS02001629 CONDUIT     39.18     0  02:39      0.19    0.02    0.45
  YS02163301YS02001633 CONDUIT     42.60     0  02:39      0.08    0.04    0.73
  YS02163601YS02164001 CONDUIT     80.41     0  03:13      0.12    0.07    0.79
  YS02164001YS02001641 CONDUIT     82.07     0  03:13      0.13    0.11    0.77
  YS02001641YS02001644 CONDUIT     78.54     0  03:04      0.13    0.25    0.78
  YS02001647YS02001649 CONDUIT    120.87     0  03:10      0.20    0.06    0.71
  YS02006553YS02006556 CONDUIT    126.72     0  03:03      0.21    0.11    0.72
  YS02006556YS02006558 CONDUIT    126.84     0  03:04      0.20    0.10    0.75
  YSB6556YSB1171       CONDUIT      7.57     0  02:25      0.04    0.01    0.51
  YS02001907YS02006553 CONDUIT    126.54     0  03:03      0.17    0.15    0.82
  YS02006558YS02006561 CONDUIT    185.21     0  03:00      2.00    0.41    0.36
  YS02001633YS02163601 CONDUIT     80.24     0  03:13      0.13    0.08    0.78
  YS02001644YS02001647 CONDUIT    119.33     0  03:06      0.21    0.07    0.69
  YS02001745YS02001748 CONDUIT     41.46     0  03:01      1.23    0.02    0.09
  YS02001748YS02001751 CONDUIT     52.88     0  03:37      0.96    0.03    0.23
  YS02001751YS02001754 CONDUIT    115.20     0  03:50      0.87    0.06    0.45
  YS02001754YS02001757 CONDUIT    170.64     0  03:57      0.33    0.07    0.78
  YS02001882YS02001884 CONDUIT      2.31     0  02:12      0.06    0.00    0.36
  YS02001884YS02001887 CONDUIT      7.06     0  02:12      0.05    0.01    0.45
  YS02001890YS02001895 CONDUIT     69.68     0  02:55      0.22    0.03    0.42
  YS02001895YS02001898 CONDUIT     69.60     0  02:56      0.43    0.12    0.29
  YS02001898YS02001901 CONDUIT     69.59     0  02:56      0.27    0.04    0.37
  YS02001901YS02001904 CONDUIT     69.34     0  02:57      0.22    0.11    0.42
  YS02001904YS02001907 CONDUIT     69.47     0  03:02      0.15    0.02    0.58
  YS02001887YS02001890 CONDUIT     69.87     0  02:53      0.18    0.12    0.51
  YS02001652YS02001649 CONDUIT     74.37     0  03:47      0.28    0.04    0.72
  YS02001655YS02001652 CONDUIT     63.38     0  03:40      0.93    0.03    0.48
  YS02001658YS02001655 CONDUIT     49.53     0  02:53      1.10    0.02    0.23
  YS02001661YS02001658 CONDUIT     49.53     0  02:53      1.24    0.02    0.10
  YS02001664YS02001661 CONDUIT     49.53     0  02:53      0.86    0.02    0.13
  YSB1154YSB6556       CONDUIT      7.50     0  02:21      0.19    0.01    0.40
  YSB1174YSB1171       CONDUIT      7.06     0  02:15      0.04    0.01    0.52
  YSB1171HS02004479    CONDUIT     13.92     0  02:24      0.54    0.01    0.39
  HS02004881HS02006253 CONDUIT     22.38     0  02:23      1.34    0.00    0.08
  YS02001793JiankangQianchi CONDUIT    186.53     0  03:02     11.27    0.01    0.52
  YS02001757CaochengTiaoxuchi CONDUIT    303.93     0  03:07      0.78    0.13    0.53
  WSF200WS02003060     CONDUIT    412.78     0  02:59      1.57    0.09    0.29
  1                    CONDUIT    722.78     0  03:03      3.04    0.25    0.34
  2                    CONDUIT      0.00     0  00:00      0.00    0.00    0.00
  3                    CONDUIT    597.65     0  00:00     10.05    0.95    0.86
  4                    CONDUIT      0.00     0  00:00      0.00    0.00    0.00
  CC-Pump-1            PUMP         0.00     0  00:00              0.00
  CC-Pump-2            PUMP       200.00     0  02:38              1.00
  JK-Pump-1            PUMP       300.00     0  00:00              1.00
  JK-Pump-2            PUMP       300.00     0  00:00              1.00
  XR-Pump-1            PUMP        95.00     0  00:00              1.00
  XR-Pump-2            PUMP         0.00     0  00:00              0.00
  XR-Pump-3            PUMP        95.00     0  00:00              1.00
  XR-Pump-4            PUMP        95.00     0  00:00              1.00
  
  
  ***************************
  Flow Classification Summary
  ***************************
  
  -------------------------------------------------------------------------------------
                      Adjusted    ---------- Fraction of Time in Flow Class ---------- 
                       /Actual         Up    Down  Sub   Sup   Up    Down  Norm  Inlet 
  Conduit               Length    Dry  Dry   Dry   Crit  Crit  Crit  Crit  Ltd   Ctrl  
  -------------------------------------------------------------------------------------
  WS02003066WSF200        1.00   0.08  0.00  0.00  0.00  0.92  0.00  0.00  0.71  0.00
  WS02006287WS02006284    1.00   0.04  0.02  0.00  0.72  0.22  0.00  0.00  0.81  0.00
  WS02006284WS02006280    1.00   0.04  0.00  0.00  0.00  0.00  0.00  0.96  0.00  0.00
  WS02006280WS02006229    1.00   0.04  0.00  0.00  0.00  0.00  0.00  0.96  0.00  0.00
  WS02006229WS02006228    1.00   0.00  0.00  0.00  0.98  0.00  0.00  0.02  0.00  0.00
  WS02006256WS02006235    1.00   0.00  0.00  0.00  1.00  0.00  0.00  0.00  0.00  0.00
  WS02006253WS02006251    1.00   0.03  0.01  0.00  0.96  0.00  0.00  0.00  0.00  0.00
  WS02006252WS02006251    1.00   0.10  0.00  0.00  0.00  0.00  0.90  0.00  0.00  0.00
  WS02006251WS02006249    1.00   0.00  0.00  0.00  1.00  0.00  0.00  0.00  0.30  0.00
  WS02006249WS02006248    1.00   0.00  0.02  0.00  0.89  0.00  0.09  0.00  0.00  0.00
  WS02006248WS02006247    1.00   0.02  0.00  0.00  0.97  0.00  0.00  0.01  0.19  0.00
  WS02006247WS02006245    1.00   0.02  0.00  0.00  0.96  0.00  0.00  0.02  0.00  0.00
  WS02006245WS02006243    1.00   0.02  0.00  0.00  0.93  0.00  0.00  0.05  0.02  0.00
  WS02006243WS02006242    1.00   0.01  0.01  0.00  0.98  0.00  0.00  0.00  0.29  0.00
  WS02006242WS02006240    1.00   0.01  0.00  0.00  0.99  0.00  0.00  0.00  0.00  0.00
  WS02006240WS02006239    1.00   0.00  0.00  0.00  0.94  0.00  0.00  0.05  0.02  0.00
  WS02006239WS02006238    1.00   0.00  0.00  0.00  1.00  0.00  0.00  0.00  0.00  0.00
  WS02006238WS02006235    1.00   0.00  0.00  0.00  1.00  0.00  0.00  0.00  0.00  0.00
  WS02006235WS02006234    1.00   0.00  0.00  0.00  0.94  0.00  0.06  0.00  0.00  0.00
  WS02006234WS02006232    1.00   0.00  0.00  0.00  1.00  0.00  0.00  0.00  0.11  0.00
  WS02006232WS02006231    1.00   0.00  0.00  0.00  0.99  0.00  0.01  0.00  0.00  0.00
  WS02006231WS02006230    1.00   0.00  0.00  0.00  0.25  0.00  0.74  0.00  0.00  0.00
  WS02006230WS02006229    1.00   0.00  0.00  0.00  0.98  0.00  0.00  0.02  0.01  0.00
  WS02006228WS02006109    1.00   0.00  0.00  0.00  0.99  0.00  0.00  0.00  0.00  0.00
  WS02006116WS02004401    1.00   0.02  0.00  0.00  0.98  0.00  0.00  0.00  0.00  0.00
  WS02006115WS02006116    1.00   0.02  0.00  0.00  0.96  0.00  0.00  0.01  0.01  0.00
  WS02006113WS02006111    1.00   0.02  0.00  0.00  0.00  0.98  0.00  0.00  0.13  0.00
  WS02006112WS02006115    1.00   0.02  0.00  0.00  0.98  0.00  0.00  0.00  0.00  0.00
  WS02006111WS02006112    1.00   0.02  0.00  0.00  0.98  0.00  0.00  0.00  0.98  0.00
  WS02006110WS02006113    1.00   0.02  0.00  0.00  0.98  0.00  0.00  0.00  0.00  0.00
  WS02006109WS02006110    1.00   0.00  0.02  0.00  0.98  0.00  0.00  0.00  0.00  0.00
  WS02004411WS02004412    1.00   0.06  0.00  0.00  0.94  0.00  0.00  0.00  0.00  0.00
  WS02004401WS02004402    1.00   0.02  0.00  0.00  0.98  0.00  0.00  0.00  0.00  0.00
  WS02004413WS02003067    1.00   0.06  0.01  0.00  0.00  0.00  0.93  0.00  0.00  0.00
  WS02004412WS02004413    1.00   0.06  0.00  0.00  0.94  0.00  0.00  0.00  0.03  0.00
  WS02004410WS02004411    1.00   0.06  0.00  0.00  0.94  0.00  0.00  0.00  0.01  0.00
  WS02004409WS02004410    1.00   0.06  0.00  0.00  0.94  0.00  0.00  0.00  0.00  0.00
  WS02004407WS02004409    1.00   0.06  0.00  0.00  0.94  0.00  0.00  0.00  0.80  0.00
  WS02004406WS02004407    1.00   0.00  0.05  0.00  0.94  0.00  0.00  0.00  0.00  0.00
  WS02004405WS02004406    1.00   0.00  0.00  0.00  1.00  0.00  0.00  0.00  0.02  0.00
  WS02004404WS02004405    1.00   0.00  0.00  0.00  1.00  0.00  0.00  0.00  0.00  0.00
  WS02004403WS02004404    1.00   0.00  0.02  0.00  0.98  0.00  0.00  0.00  0.02  0.00
  WS02004402WS02004403    1.00   0.02  0.00  0.00  0.98  0.00  0.00  0.00  0.00  0.00
  WS02004139WS02001211    1.00   0.00  0.00  0.00  0.99  0.00  0.01  0.00  0.00  0.00
  WS02004138WS02004139    1.00   0.00  0.00  0.00  0.99  0.01  0.00  0.00  1.00  0.00
  WS02003067WS02003066    1.00   0.07  0.01  0.00  0.92  0.00  0.00  0.00  0.00  0.00
  WS02001213WS02003059    1.00   0.00  0.00  0.00  0.99  0.00  0.00  0.00  0.00  0.00
  WS02001212WS02001213    1.00   0.01  0.00  0.00  0.77  0.00  0.22  0.00  0.00  0.00
  WS02001211WS02001212    1.00   0.00  0.01  0.00  0.99  0.00  0.00  0.00  0.00  0.00
  WS02003072WS02003073    1.00   0.00  0.00  0.00  0.00  0.00  0.00  1.00  0.00  0.00
  WS02003069WS02003072    1.00   0.00  0.00  0.00  0.99  0.01  0.00  0.00  0.32  0.00
  WS02003060WS02003069    1.00   0.00  0.00  0.00  0.99  0.01  0.00  0.00  0.05  0.00
  WS02003059WS02003060    1.00   0.00  0.00  0.00  0.99  0.01  0.00  0.00  0.01  0.00
  HS02004901HS02004770    1.00   0.04  0.00  0.00  0.96  0.00  0.00  0.00  0.03  0.00
  HS02004876HS02004881    1.00   0.02  0.00  0.00  0.98  0.00  0.00  0.00  0.00  0.00
  HS02004870HS02004876    1.00   0.01  0.00  0.00  0.99  0.00  0.00  0.00  0.95  0.00
  HS02004842HS02004848    1.00   0.00  0.04  0.00  0.96  0.00  0.00  0.00  0.70  0.00
  HS02004837HS02004842    1.00   0.00  0.00  0.00  0.99  0.01  0.00  0.00  0.11  0.00
  HS02004830HS02004837    1.00   0.00  0.00  0.00  1.00  0.00  0.00  0.00  0.99  0.00
  HS02004824HS02004830    1.00   0.00  0.00  0.00  1.00  0.00  0.00  0.00  0.00  0.00
  HS02004817HS02004824    1.00   0.00  0.00  0.00  1.00  0.00  0.00  0.00  1.00  0.00
  HS02004770HS02004777    1.00   0.00  0.04  0.00  0.96  0.00  0.00  0.00  0.08  0.00
  HS02004799HS02004480    1.00   0.00  0.02  0.00  0.94  0.00  0.03  0.00  0.00  0.00
  HS02004792HS02004799    1.00   0.00  0.00  0.00  0.98  0.02  0.00  0.00  0.98  0.00
  HS02004788HS02004792    1.00   0.00  0.00  0.00  0.98  0.02  0.00  0.00  0.98  0.00
  HS02004785HS02004788    1.00   0.00  0.00  0.00  1.00  0.00  0.00  0.00  0.00  0.00
  HS02004777HS02004785    1.00   0.00  0.00  0.00  1.00  0.00  0.00  0.00  0.22  0.00
  HS02004480HS02004478    1.00   0.05  0.00  0.00  0.75  0.00  0.00  0.20  0.00  0.00
  HS02004479HS02004480    1.00   0.02  0.00  0.00  0.98  0.00  0.00  0.00  0.16  0.00
  HS02004862HS02004870    1.00   0.00  0.00  0.00  1.00  0.00  0.00  0.00  0.05  0.00
  HS02004848HS02004852    1.00   0.04  0.00  0.00  0.96  0.00  0.00  0.00  0.70  0.00
  HS02004856HS02004862    1.00   0.00  0.07  0.00  0.93  0.00  0.00  0.00  0.73  0.00
  HS02004852HS02004856    1.00   0.04  0.01  0.00  0.95  0.00  0.00  0.00  0.82  0.00
  HS02004802HS02004478    1.00   0.04  0.01  0.00  0.95  0.00  0.00  0.00  0.00  0.00
  HS02004478WS02006287    1.00   0.05  0.00  0.00  0.94  0.00  0.00  0.00  0.81  0.00
  HS02004817HS02004807    1.00   0.00  0.04  0.00  0.96  0.00  0.00  0.00  0.00  0.00
  HS02004807HS02004802    1.00   0.04  0.00  0.00  0.95  0.00  0.00  0.00  0.01  0.00
  YS02001759YS02001757    1.00   0.00  0.00  0.00  1.00  0.00  0.00  0.00  0.17  0.00
  YS02001762YS02001759    1.00   0.00  0.00  0.00  1.00  0.00  0.00  0.00  0.05  0.00
  YS02001765YS02001762    1.00   0.00  0.00  0.00  1.00  0.00  0.00  0.00  0.23  0.00
  YS02001770YS02001767    1.00   0.00  0.00  0.00  1.00  0.00  0.00  0.00  0.00  0.00
  YS02001774YS02001770    1.00   0.00  0.05  0.00  0.95  0.00  0.00  0.00  0.07  0.00
  YS02001779YS02001774    1.00   0.00  0.00  0.00  1.00  0.00  0.00  0.00  0.28  0.00
  YS02001649YS02001757    1.00   0.00  0.00  0.00  1.00  0.00  0.00  0.00  0.19  0.00
  YS02001767YS02001765    1.00   0.00  0.00  0.00  1.00  0.00  0.00  0.00  0.01  0.00
  YS02006561YS02001783    1.00   0.07  0.00  0.00  0.00  0.93  0.00  0.00  0.72  0.00
  YS02001783YS02001784    1.00   0.00  0.07  0.00  0.93  0.00  0.00  0.00  0.08  0.00
  YS02001784YS02001785    1.00   0.00  0.00  0.00  1.00  0.00  0.00  0.00  0.26  0.00
  YS02001788YS02001790    1.00   0.00  0.00  0.00  0.08  0.92  0.00  0.00  0.99  0.00
  YS02001790YS02001791    1.00   0.00  0.00  0.00  0.02  0.98  0.00  0.00  0.38  0.00
  YS02001791YS02001793    1.00   0.00  0.00  0.00  0.00  1.00  0.00  0.00  0.00  0.00
  YS02001910YS02001907    1.00   0.00  0.00  0.00  0.98  0.00  0.00  0.02  0.13  0.00
  YS02001786YS02001788    1.00   0.00  0.00  0.00  0.08  0.92  0.00  0.00  0.00  0.00
  YS02001915YS02001910    1.00   0.00  0.00  0.00  1.00  0.00  0.00  0.00  0.25  0.00
  YS02001918YS02001915    1.00   0.00  0.01  0.00  0.98  0.01  0.00  0.00  0.81  0.00
  YS02001923YS02001920    1.00   0.00  0.00  0.00  1.00  0.00  0.00  0.00  1.00  0.00
  YS02001926YS02001923    1.00   0.00  0.03  0.00  0.00  0.00  0.97  0.00  0.00  0.00
  YS02001929YS02001926    1.00   0.00  0.04  0.00  0.96  0.00  0.00  0.00  0.86  0.00
  YS02001920YS02001918    1.00   0.00  0.01  0.00  0.99  0.00  0.00  0.00  0.00  0.00
  YS02001629YS02163301    1.00   0.06  0.00  0.00  0.93  0.00  0.00  0.00  0.00  0.00
  YS02001619YS02001622    1.00   0.04  0.00  0.00  0.96  0.00  0.00  0.00  0.00  0.00
  YS02001622YS02001625    1.00   0.04  0.00  0.00  0.96  0.00  0.00  0.00  0.14  0.00
  YS02001625YS02001629    1.00   0.04  0.03  0.00  0.90  0.00  0.02  0.00  0.00  0.00
  YS02163301YS02001633    1.00   0.00  0.06  0.00  0.94  0.00  0.00  0.00  0.00  0.00
  YS02163601YS02164001    1.00   0.00  0.03  0.00  0.97  0.00  0.00  0.00  0.00  0.00
  YS02164001YS02001641    1.00   0.01  0.02  0.00  0.97  0.00  0.00  0.00  0.07  0.00
  YS02001641YS02001644    1.00   0.00  0.01  0.00  0.99  0.00  0.00  0.00  0.00  0.00
  YS02001647YS02001649    1.00   0.00  0.07  0.00  0.93  0.00  0.00  0.00  0.01  0.00
  YS02006553YS02006556    1.00   0.02  0.00  0.00  0.98  0.00  0.00  0.00  0.03  0.00
  YS02006556YS02006558    1.00   0.00  0.01  0.00  0.99  0.00  0.00  0.00  0.00  0.00
  YSB6556YSB1171          1.00   0.02  0.02  0.00  0.96  0.00  0.00  0.00  0.00  0.00
  YS02001907YS02006553    1.00   0.00  0.02  0.00  0.98  0.00  0.00  0.00  0.00  0.00
  YS02006558YS02006561    1.00   0.07  0.00  0.00  0.00  0.93  0.00  0.00  0.71  0.00
  YS02001633YS02163601    1.00   0.00  0.01  0.00  0.99  0.00  0.00  0.00  0.20  0.00
  YS02001644YS02001647    1.00   0.00  0.07  0.00  0.93  0.00  0.00  0.00  0.00  0.00
  YS02001745YS02001748    1.00   0.00  0.00  0.00  0.00  0.00  0.00  1.00  0.00  0.00
  YS02001748YS02001751    1.00   0.00  0.00  0.00  0.97  0.03  0.00  0.00  0.69  0.00
  YS02001751YS02001754    1.00   0.00  0.00  0.00  0.92  0.00  0.00  0.08  0.02  0.00
  YS02001754YS02001757    1.00   0.00  0.00  0.00  0.99  0.01  0.00  0.00  0.27  0.00
  YS02001882YS02001884    1.00   0.06  0.00  0.00  0.94  0.00  0.00  0.00  0.00  0.00
  YS02001884YS02001887    1.00   0.03  0.01  0.00  0.96  0.00  0.00  0.00  0.00  0.00
  YS02001890YS02001895    1.00   0.00  0.06  0.00  0.93  0.00  0.00  0.00  0.00  0.00
  YS02001895YS02001898    1.00   0.07  0.00  0.00  0.93  0.00  0.01  0.00  0.00  0.00
  YS02001898YS02001901    1.00   0.06  0.01  0.00  0.93  0.00  0.00  0.00  0.02  0.00
  YS02001901YS02001904    1.00   0.06  0.00  0.00  0.94  0.00  0.00  0.00  0.00  0.00
  YS02001904YS02001907    1.00   0.00  0.06  0.00  0.94  0.00  0.00  0.00  0.00  0.00
  YS02001887YS02001890    1.00   0.00  0.00  0.00  0.98  0.00  0.02  0.00  0.00  0.00
  YS02001652YS02001649    1.00   0.00  0.00  0.00  1.00  0.00  0.00  0.00  0.27  0.00
  YS02001655YS02001652    1.00   0.00  0.00  0.00  0.92  0.00  0.00  0.08  0.03  0.00
  YS02001658YS02001655    1.00   0.00  0.06  0.00  0.91  0.04  0.00  0.00  0.79  0.00
  YS02001661YS02001658    1.00   0.06  0.00  0.00  0.00  0.94  0.00  0.00  0.72  0.00
  YS02001664YS02001661    1.00   0.04  0.00  0.00  0.96  0.00  0.00  0.00  0.86  0.00
  YSB1154YSB6556          1.00   0.04  0.00  0.00  0.96  0.00  0.00  0.00  0.02  0.00
  YSB1174YSB1171          1.00   0.03  0.01  0.00  0.96  0.00  0.00  0.00  0.00  0.00
  YSB1171HS02004479       1.00   0.02  0.00  0.00  0.97  0.00  0.00  0.00  0.13  0.00
  HS02004881HS02006253    1.00   0.03  0.00  0.00  0.66  0.01  0.00  0.30  0.46  0.00
  YS02001793JiankangQianchi    1.00   0.00  0.00  0.00  0.05  0.94  0.00  0.00  0.05  0.00
  YS02001757CaochengTiaoxuchi    1.00   0.00  0.10  0.00  0.90  0.00  0.00  0.00  0.00  0.00
  WSF200WS02003060        1.00   0.00  0.08  0.00  0.85  0.07  0.00  0.00  0.25  0.00
  1                       1.00   0.00  0.00  0.00  0.00  1.00  0.00  0.00  0.33  0.00
  2                       1.00   1.00  0.00  0.00  0.00  0.00  0.00  0.00  0.00  0.00
  3                       1.00   0.36  0.00  0.00  0.00  0.64  0.00  0.00  0.19  0.00
  4                       1.00   1.00  0.00  0.00  0.00  0.00  0.00  0.00  0.00  0.00
  
  
  *************************
  Conduit Surcharge Summary
  *************************
  
  ----------------------------------------------------------------------------
                                                           Hours        Hours 
                         --------- Hours Full --------   Above Full   Capacity
  Conduit                Both Ends  Upstream  Dnstream   Normal Flow   Limited
  ----------------------------------------------------------------------------
  WS02006229WS02006228        0.28      0.36      0.28      3.43         0.28
  WS02006256WS02006235        5.51      5.51      7.16      3.20         0.01
  WS02006249WS02006248        0.01      0.01      0.01      3.56         0.01
  WS02006247WS02006245        0.01      0.01      0.01      3.67         0.01
  WS02006235WS02006234        0.01      0.01      0.01      5.54         0.01
  WS02006231WS02006230        0.01      0.01      0.01      5.51         0.01
  WS02006230WS02006229        0.66      2.97      0.66      5.60         0.66
  WS02006228WS02006109        0.31      0.54      0.31      3.90         0.31
  WS02006111WS02006112        0.01      0.01      3.60      0.01         0.01
  WS02006110WS02006113        0.01      0.01      0.43      0.01         0.01
  WS02006109WS02006110        0.01      0.01      0.55      0.01         0.01
  WS02004404WS02004405        0.01      0.01      0.01      5.47         0.01
  WS02003072WS02003073        0.01      0.01      0.01      4.52         0.01
  YS02001793JiankangQianchi        0.01      0.01      0.04      0.01         0.01
  3                           0.01      0.01      0.01      0.01         0.01
  
  
  ***************
  Pumping Summary
  ***************
  
  ---------------------------------------------------------------------------------------------------------
                                                  Min       Avg       Max     Total     Power    % Time Off
                        Percent   Number of      Flow      Flow      Flow    Volume     Usage    Pump Curve
  Pump                 Utilized   Start-Ups       LPS       LPS       LPS  10^6 ltr     Kw-hr    Low   High
  ---------------------------------------------------------------------------------------------------------
  CC-Pump-1                0.00           0      0.00      0.00      0.00     0.000      0.00    0.0    0.0
  CC-Pump-2               68.43           1      0.00    170.69    200.00     3.149     13.01    0.0  100.0
  JK-Pump-1               53.18           8      0.00     87.91    300.00     0.905     17.38    0.0    0.0
  JK-Pump-2              100.00           2      0.00     99.13    300.00     2.034     38.99    0.0    0.0
  XR-Pump-1               89.35           9      0.00     68.82     95.00     1.881     37.61    0.0    0.0
  XR-Pump-2                0.00           0      0.00      0.00      0.00     0.000      0.00    0.0    0.0
  XR-Pump-3              100.00           3      0.00     89.18     95.00     2.565     51.98    0.0    0.0
  XR-Pump-4              100.00           2      0.00     84.46     95.00     2.394     48.24    0.0    0.0
  

  Analysis begun on:  Wed Jan  5 22:17:43 2022
  Analysis ended on:  Wed Jan  5 22:17:45 2022
  Total elapsed time: 00:00:02