
  EPA STORM WATER MANAGEMENT MODEL - VERSION 5.1 (Build 5.3.0.dev0)
  --------------------------------------------------------------

  WARNING 04: minimum elevation drop used for Conduit WS02004404WS02004405
  WARNING 03: negative offset ignored for Link YS02001904YS02001907
  
  *********************************************************
  NOTE: The summary statistics displayed in this report are
  based on results found at every computational time step,  
  not just on results from each reporting time step.
  *********************************************************
  
  ****************
  Analysis Options
  ****************
  Flow Units ............... LPS
  Process Models:
    Rainfall/Runoff ........ YES
    RDII ................... NO
    Snowmelt ............... NO
    Groundwater ............ NO
    Flow Routing ........... YES
    Ponding Allowed ........ NO
    Water Quality .......... NO
  Infiltration Method ...... HORTON
  Flow Routing Method ...... DYNWAVE
  Surcharge Method ......... EXTRAN
  Starting Date ............ 08/28/2015 08:00:00
  Ending Date .............. 08/28/2015 15:50:00
  Antecedent Dry Days ...... 8.0
  Report Time Step ......... 00:01:00
  Wet Time Step ............ 00:01:00
  Dry Time Step ............ 00:01:00
  Routing Time Step ........ 5.00 sec
  Variable Time Step ....... YES
  Maximum Trials ........... 8
  Number of Threads ........ 4
  Head Tolerance ........... 0.001500 m
  
  
  **************************        Volume         Depth
  Runoff Quantity Continuity     hectare-m            mm
  **************************     ---------       -------
  Total Precipitation ......         3.868         8.469
  Evaporation Loss .........         0.000         0.000
  Infiltration Loss ........         0.985         2.157
  Surface Runoff ...........         1.916         4.194
  Final Storage ............         0.968         2.119
  Continuity Error (%) .....        -0.017
  
  
  **************************        Volume        Volume
  Flow Routing Continuity        hectare-m      10^6 ltr
  **************************     ---------     ---------
  Dry Weather Inflow .......         0.616         6.165
  Wet Weather Inflow .......         1.915        19.148
  Groundwater Inflow .......         0.000         0.000
  RDII Inflow ..............         0.000         0.000
  External Inflow ..........         0.102         1.024
  External Outflow .........         2.290        22.899
  Flooding Loss ............         0.138         1.384
  Evaporation Loss .........         0.000         0.000
  Exfiltration Loss ........         0.000         0.000
  Initial Stored Volume ....         0.076         0.761
  Final Stored Volume ......         0.612         6.120
  Continuity Error (%) .....       -12.200
  
  
  *************************
  Highest Continuity Errors
  *************************
  Node JK-storage (-59.07%)
  Node YS02001774 (42.36%)
  Node HS02004842 (20.89%)
  Node YS02001884 (15.14%)
  Node YSB1171 (4.66%)
  
  
  ***************************
  Time-Step Critical Elements
  ***************************
  Link 3 (62.80%)
  Link WS02006252WS02006251 (32.13%)
  Link WS02006280WS02006229 (1.31%)
  
  
  ********************************
  Highest Flow Instability Indexes
  ********************************
  Link WS02006113WS02006111 (34)
  Link YS02001774YS02001770 (27)
  Link YS02001779YS02001774 (26)
  Link YS02001765YS02001762 (23)
  Link YS02001762YS02001759 (22)
  
  
  *************************
  Routing Time Step Summary
  *************************
  Minimum Time Step           :     0.26 sec
  Average Time Step           :     0.75 sec
  Maximum Time Step           :     5.00 sec
  Percent in Steady State     :    -0.00
  Average Iterations per Step :     4.00
  Percent Not Converging      :    18.66
  
  
  ***************************
  Subcatchment Runoff Summary
  ***************************
  
  ------------------------------------------------------------------------------------------------------------------------------
                            Total      Total      Total      Total     Imperv       Perv      Total       Total     Peak  Runoff
                           Precip      Runon       Evap      Infil     Runoff     Runoff     Runoff      Runoff   Runoff   Coeff
  Subcatchment                 mm         mm         mm         mm         mm         mm         mm    10^6 ltr      LPS
  ------------------------------------------------------------------------------------------------------------------------------
  sub0                       8.47       0.00       0.00       0.59       6.61       0.00       6.61        0.01     1.03   0.781
  sub1                       8.47       0.00       0.00       0.93       6.28       0.00       6.28        0.04     7.43   0.741
  sub2                       8.47       0.00       0.00       3.13       4.43       0.00       4.43        0.04     7.08   0.523
  sub3                       8.47       0.00       0.00       3.13       4.39       0.00       4.39        0.10    15.91   0.518
  sub4                       8.47       0.00       0.00       0.93       6.13       0.00       6.13        0.13    19.23   0.724
  sub5                       8.47       0.00       0.00       0.59       6.56       0.00       6.56        0.07    13.22   0.775
  sub7                       8.47       0.00       0.00       0.76       6.45       0.00       6.45        0.02     4.04   0.762
  sub8                       8.47       0.00       0.00       0.76       6.44       0.00       6.44        0.04     7.54   0.761
  sub9                       8.47       0.00       0.00       0.76       6.44       0.00       6.44        0.03     5.65   0.760
  sub10                      8.47       0.00       0.00       0.68       6.50       0.00       6.50        0.07    12.87   0.767
  sub11                      8.47       0.00       0.00       0.68       6.52       0.00       6.52        0.08    13.93   0.769
  sub12                      8.47       0.00       0.00       1.10       6.18       0.00       6.18        0.05    10.23   0.730
  sub14                      8.47       0.00       0.00       0.76       6.44       0.00       6.44        0.06    11.15   0.760
  sub15                      8.47       0.00       0.00       2.54       4.95       0.00       4.95        0.09    15.40   0.584
  sub16                      8.47       0.00       0.00       2.79       4.76       0.00       4.76        0.05     9.37   0.561
  sub17                      8.47       0.00       0.00       2.71       4.82       0.00       4.82        0.04     7.75   0.570
  sub22                      8.47       0.00       0.00       3.64       4.04       0.00       4.04        0.26    47.08   0.477
  sub23                      8.47       0.00       0.00       3.13       4.46       0.00       4.46        0.21    39.46   0.527
  sub60                      8.47       0.00       0.00       1.02       4.75       0.00       4.75        1.44   149.28   0.561
  sub61                      8.47       0.00       0.00       1.44       4.95       0.00       4.95        1.53   180.35   0.585
  sub62                      8.47       0.00       0.00       0.68       5.35       0.00       5.35        1.64   187.08   0.631
  sub63                      8.47       0.00       0.00       2.46       4.37       0.00       4.37        1.32   164.01   0.516
  sub64                      8.47       0.00       0.00       1.27       4.55       0.00       4.55        1.38   141.99   0.537
  sub65                      8.47       0.00       0.00       1.10       4.62       0.00       4.62        1.42   144.28   0.545
  sub66                      8.47       0.00       0.00       2.46       3.94       0.00       3.94        1.21   129.20   0.465
  sub67                      8.47       0.00       0.00       0.68       5.75       0.00       5.75        1.78   226.25   0.679
  sub68                      8.47       0.00       0.00       1.19       5.24       0.00       5.24        1.61   196.27   0.618
  sub69                      8.47       0.00       0.00       1.27       5.53       0.00       5.53        1.29   176.57   0.653
  sub70                      8.47       5.64       0.00       4.80       7.11       0.00       7.11        1.63   167.69   0.504
  sub71                      8.47       0.00       0.00       0.68       5.16       0.00       5.16        1.22   132.38   0.610
  sub72                      8.47       0.00       0.00       0.59       3.87       0.00       3.87        0.79    64.98   0.457
  sub73                      8.47       6.92       0.00       5.23       7.51       0.00       7.51        1.76   149.38   0.488
  sub74                      8.47       0.00       0.00       6.35       1.66       0.00       1.66        0.66    93.55   0.196
  
  
  ******************
  Node Depth Summary
  ******************
  
  ---------------------------------------------------------------------------------
                                 Average  Maximum  Maximum  Time of Max    Reported
                                   Depth    Depth      HGL   Occurrence   Max Depth
  Node                 Type       Meters   Meters   Meters  days hr:min      Meters
  ---------------------------------------------------------------------------------
  WS02001211           JUNCTION     0.70     0.72     5.56     0  02:39        0.72
  WS02001212           JUNCTION     0.42     0.45     5.51     0  02:38        0.45
  WS02001213           JUNCTION     0.65     0.71     5.47     0  02:37        0.71
  WS02003069           JUNCTION     0.47     0.55     5.14     0  02:37        0.55
  WS02003072           JUNCTION     0.54     0.61     4.98     0  02:37        0.61
  WS02003073           JUNCTION     0.32     0.37     4.44     0  02:38        0.37
  WS02003060           JUNCTION     0.42     0.49     5.42     0  02:36        0.49
  WS02003066           JUNCTION     0.24     0.30     5.85     0  02:34        0.30
  WS02003059           JUNCTION     0.71     0.77     5.45     0  02:37        0.77
  WS02003067           JUNCTION     0.59     0.70     6.02     0  02:34        0.70
  WS02004401           JUNCTION     0.70     0.86     6.86     0  02:31        0.86
  WS02004402           JUNCTION     0.73     0.88     6.84     0  02:31        0.88
  WS02004403           JUNCTION     0.75     0.90     6.83     0  02:31        0.90
  WS02004404           JUNCTION     0.82     0.97     6.82     0  02:31        0.97
  WS02004406           JUNCTION     0.83     0.96     6.79     0  02:32        0.96
  WS02004409           JUNCTION     0.52     0.67     6.44     0  02:33        0.67
  WS02004410           JUNCTION     0.54     0.69     6.41     0  02:33        0.69
  WS02004411           JUNCTION     0.55     0.70     6.38     0  02:34        0.70
  WS02004412           JUNCTION     0.56     0.70     6.34     0  02:34        0.70
  WS02004413           JUNCTION     0.72     0.86     6.33     0  02:34        0.86
  WS02004405           JUNCTION     0.82     0.96     6.81     0  02:31        0.96
  WS02006109           JUNCTION     0.78     0.97     7.59     0  02:29        0.97
  WS02006110           JUNCTION     0.77     0.92     7.51     0  02:29        0.92
  WS02006111           JUNCTION     0.23     0.29     6.99     0  02:30        0.29
  WS02006112           JUNCTION     0.87     1.06     6.94     0  02:36        1.05
  WS02006113           JUNCTION     0.36     0.46     7.35     0  02:29        0.46
  WS02006115           JUNCTION     0.59     0.76     6.90     0  02:31        0.76
  WS02006116           JUNCTION     0.67     0.84     6.88     0  02:31        0.84
  WS02006230           JUNCTION     0.76     1.02     7.76     0  02:29        1.02
  WS02006231           JUNCTION     0.50     0.68     7.81     0  02:30        0.68
  WS02006232           JUNCTION     0.64     0.81     7.85     0  02:30        0.81
  WS02006234           JUNCTION     0.56     0.74     7.90     0  02:30        0.74
  WS02006235           JUNCTION     0.60     0.77     7.93     0  02:31        0.77
  WS02006238           JUNCTION     0.62     0.79     7.94     0  02:31        0.79
  WS02006240           JUNCTION     0.51     0.69     7.99     0  02:31        0.69
  WS02006242           JUNCTION     0.56     0.75     8.01     0  02:31        0.75
  WS02006243           JUNCTION     0.44     0.62     8.04     0  02:32        0.62
  WS02006245           JUNCTION     0.41     0.58     8.06     0  02:32        0.58
  WS02006247           JUNCTION     0.43     0.58     8.08     0  02:32        0.58
  WS02006248           JUNCTION     0.37     0.51     8.10     0  02:32        0.51
  WS02006249           JUNCTION     0.40     0.52     8.12     0  02:32        0.52
  WS02006239           JUNCTION     0.57     0.75     7.96     0  02:31        0.75
  WS02006251           JUNCTION     0.39     0.49     8.16     0  02:32        0.49
  WS02006252           JUNCTION     0.33     0.35     8.59     0  02:01        0.35
  WS02006253           JUNCTION     0.41     0.52     8.16     0  02:32        0.52
  WS02006256           JUNCTION     1.12     2.35     9.28     0  00:00        1.21
  WS02004138           JUNCTION     0.17     0.17     7.42     0  00:00        0.17
  WS02004407           JUNCTION     0.23     0.30     6.61     0  02:32        0.30
  WS02006228           JUNCTION     0.78     1.01     7.66     0  02:29        1.01
  WS02006229           JUNCTION     0.76     1.01     7.70     0  02:29        1.01
  WS02006280           JUNCTION     0.07     0.14     8.41     0  02:27        0.14
  WS02006284           JUNCTION     0.36     0.48     8.88     0  02:27        0.48
  WS02006287           JUNCTION     0.09     0.21     9.16     0  02:27        0.21
  WSF200               JUNCTION     0.23     0.31     5.55     0  02:34        0.31
  HS02004901           JUNCTION     0.12     0.22    10.04     0  02:25        0.22
  HS02004881           JUNCTION     0.01     0.02     9.05     0  02:26        0.02
  HS02004876           JUNCTION     0.04     0.10     9.13     0  02:25        0.10
  HS02004870           JUNCTION     0.01     0.04     9.33     0  02:26        0.04
  HS02004862           JUNCTION     0.02     0.05     9.43     0  02:27        0.05
  HS02004856           JUNCTION     0.08     0.11     9.53     0  02:26        0.11
  HS02004852           JUNCTION     0.01     0.03     9.54     0  02:27        0.03
  HS02004848           JUNCTION     0.01     0.03     9.63     0  02:26        0.03
  HS02004842           JUNCTION     0.33     0.36     9.63     0  02:26        0.36
  HS02004837           JUNCTION     0.03     0.05     9.63     0  02:26        0.05
  HS02004830           JUNCTION     0.04     0.06     9.53     0  02:26        0.06
  HS02004824           JUNCTION     0.02     0.04     9.45     0  02:27        0.04
  HS02004817           JUNCTION     0.44     0.53     9.37     0  02:27        0.53
  HS02004807           JUNCTION     0.12     0.20     9.37     0  02:27        0.20
  HS02004802           JUNCTION     0.16     0.24     9.37     0  02:27        0.24
  HS02004799           JUNCTION     0.12     0.25     9.46     0  02:25        0.25
  HS02004792           JUNCTION     0.03     0.09     9.62     0  02:25        0.09
  HS02004788           JUNCTION     0.02     0.07     9.97     0  02:26        0.07
  HS02004785           JUNCTION     0.05     0.13    10.03     0  02:25        0.13
  HS02004777           JUNCTION     0.15     0.24    10.04     0  02:25        0.24
  HS02004770           JUNCTION     0.12     0.21    10.04     0  02:25        0.21
  HS02004480           JUNCTION     0.08     0.19     9.43     0  02:26        0.19
  HS02004479           JUNCTION     0.12     0.23     9.43     0  02:25        0.23
  HS02004478           JUNCTION     0.06     0.12     9.35     0  02:26        0.12
  YS02001745           JUNCTION     0.61     0.85     8.37     0  04:00        0.85
  YS02001748           JUNCTION     0.99     1.31     8.38     0  04:09        1.29
  YS02001751           JUNCTION     1.18     2.03     8.90     0  03:04        1.49
  YS02001754           JUNCTION     1.43     2.05     8.65     0  03:04        1.77
  YS02001762           JUNCTION     1.64     2.02     8.42     0  03:51        1.99
  YS02001765           JUNCTION     1.59     1.97     8.42     0  03:57        1.93
  YS02001767           JUNCTION     1.55     1.92     8.41     0  04:00        1.89
  YS02001770           JUNCTION     1.55     1.90     8.40     0  03:51        1.88
  YS02001774           JUNCTION     1.62     1.97     8.39     0  03:57        1.95
  YS02001779           JUNCTION     1.36     1.68     8.37     0  03:04        1.68
  YS02001882           JUNCTION     0.37     0.63     7.35     0  03:01        0.63
  YS02001884           JUNCTION     0.46     0.73     7.35     0  03:01        0.73
  YS02001759           JUNCTION     1.67     2.05     8.42     0  04:04        2.02
  YS02001887           JUNCTION     0.54     0.81     7.35     0  03:01        0.80
  YS02001890           JUNCTION     0.57     0.84     7.34     0  03:01        0.83
  YS02001898           JUNCTION     0.34     0.59     7.33     0  03:02        0.59
  YS02001901           JUNCTION     0.46     0.71     7.32     0  02:59        0.71
  YS02001904           JUNCTION     0.44     0.69     7.32     0  03:03        0.68
  YS02001907           JUNCTION     0.77     1.06     7.34     0  02:53        1.03
  YS02001910           JUNCTION     0.56     0.82     7.32     0  03:00        0.81
  YS02001915           JUNCTION     0.35     0.60     7.32     0  02:59        0.60
  YS02001918           JUNCTION     0.11     0.25     7.32     0  03:00        0.25
  YS02001619           JUNCTION     1.14     1.61     8.54     0  03:17        1.47
  YS02001629           JUNCTION     1.50     1.85     8.40     0  03:14        1.84
  YS02001641           JUNCTION     1.61     1.95     8.39     0  03:27        1.92
  YS02001644           JUNCTION     1.61     1.92     8.35     0  03:27        1.92
  YS02001652           JUNCTION     1.45     2.10     8.70     0  03:17        1.93
  YS02001655           JUNCTION     1.21     2.20     9.05     0  02:52        2.16
  YS02001920           JUNCTION     0.21     0.33     7.33     0  03:01        0.32
  YS02001923           JUNCTION     0.08     0.12     7.38     0  03:02        0.12
  YS02001926           JUNCTION     0.17     0.23     7.67     0  03:01        0.23
  YS02001929           JUNCTION     0.09     0.12     7.81     0  03:01        0.12
  YS02001658           JUNCTION     0.94     2.30     9.44     0  03:14        2.27
  YS02001661           JUNCTION     0.72     2.16     9.56     0  03:51        1.13
  YS02001664           JUNCTION     0.31     0.56     8.49     0  04:07        0.56
  YS02001622           JUNCTION     1.17     1.62     8.52     0  03:17        1.49
  YS02001633           JUNCTION     1.59     1.97     8.42     0  03:27        1.92
  YS02001649           JUNCTION     1.65     2.05     8.44     0  03:14        2.01
  YS02001757           JUNCTION     1.77     2.16     8.42     0  03:59        2.13
  YS02001895           JUNCTION     0.33     0.58     7.33     0  03:02        0.58
  YS02001625           JUNCTION     1.45     1.78     8.38     0  03:13        1.78
  YS02163301           JUNCTION     1.53     1.90     8.42     0  03:21        1.87
  YS02163601           JUNCTION     1.65     2.02     8.42     0  03:27        1.97
  YS02164001           JUNCTION     1.59     1.95     8.41     0  03:27        1.91
  YS02001647           JUNCTION     1.44     1.80     8.41     0  03:55        1.77
  YSB1154              JUNCTION     0.26     0.38     9.43     0  02:26        0.38
  YSB6556              JUNCTION     0.15     0.26     9.43     0  02:26        0.26
  YSB1174              JUNCTION     0.21     0.32     9.43     0  02:26        0.32
  YSB1171              JUNCTION     0.41     0.53     9.43     0  02:25        0.53
  YS02006553           JUNCTION     0.77     1.06     7.35     0  03:03        1.03
  YS02006561           JUNCTION     0.18     0.35     7.01     0  03:03        0.35
  YS02006556           JUNCTION     0.74     1.02     7.33     0  03:03        1.01
  YS02006558           JUNCTION     0.79     1.06     7.33     0  03:00        1.05
  YS02001783           JUNCTION     0.32     0.61     6.75     0  03:03        0.61
  YS02001784           JUNCTION     0.35     0.62     6.69     0  03:03        0.61
  YS02001786           JUNCTION     0.30     0.52     6.55     0  03:03        0.51
  YS02001788           JUNCTION     0.22     0.40     6.38     0  03:03        0.40
  YS02001790           JUNCTION     0.27     0.49     6.13     0  03:03        0.49
  YS02001791           JUNCTION     0.17     0.30     5.77     0  03:03        0.30
  YS02001793           JUNCTION     0.11     0.19     5.02     0  03:02        0.19
  WS02004139           JUNCTION     0.64     0.66     5.57     0  02:39        0.66
  WSC                  OUTFALL      0.32     0.37     1.04     0  02:38        0.37
  3                    OUTFALL      0.14     0.23     6.23     0  00:00        0.21
  4                    OUTFALL      0.00     0.02     7.02     0  02:32        0.02
  5                    OUTFALL      0.00     0.00     5.00     0  00:00        0.00
  JK-storage           STORAGE      0.02     3.00     3.80     0  00:00        2.39
  CC-storage           STORAGE      0.98     1.36     8.36     0  04:06        1.36
  XR-storage           STORAGE      5.20     7.34     5.34     0  05:20        7.34
  
  
  *******************
  Node Inflow Summary
  *******************
  
  -------------------------------------------------------------------------------------------------
                                  Maximum  Maximum                  Lateral       Total        Flow
                                  Lateral    Total  Time of Max      Inflow      Inflow     Balance
                                   Inflow   Inflow   Occurrence      Volume      Volume       Error
  Node                 Type           LPS      LPS  days hr:min    10^6 ltr    10^6 ltr     Percent
  -------------------------------------------------------------------------------------------------
  WS02001211           JUNCTION      7.35   293.23     0  03:23       0.207        8.21       0.438
  WS02001212           JUNCTION      0.00   293.87     0  03:22           0        8.17       0.249
  WS02001213           JUNCTION      0.00   294.46     0  03:22           0        8.15       0.298
  WS02003069           JUNCTION      0.32   853.84     0  02:36     0.00902        16.5       0.190
  WS02003072           JUNCTION      0.00   853.83     0  02:37           0        16.5       0.231
  WS02003073           JUNCTION      1.82   855.66     0  02:37      0.0514        16.5       0.260
  WS02003060           JUNCTION     16.53   853.51     0  02:36       0.466        16.5       0.179
  WS02003066           JUNCTION      0.00   545.37     0  02:34           0        7.99       0.057
  WS02003059           JUNCTION      0.00   295.46     0  03:21           0        8.13       0.466
  WS02003067           JUNCTION      0.00   545.35     0  02:34           0           8       0.119
  WS02004401           JUNCTION      0.00   545.82     0  02:30           0        8.24       0.267
  WS02004402           JUNCTION      0.00   545.75     0  02:31           0        8.22       0.251
  WS02004403           JUNCTION      0.00   545.70     0  02:31           0         8.2       0.228
  WS02004404           JUNCTION      0.16   545.82     0  02:31     0.00457        8.18       0.170
  WS02004406           JUNCTION      0.00   545.86     0  02:31           0        8.15       0.416
  WS02004409           JUNCTION      0.00   545.82     0  02:32           0        8.11       0.208
  WS02004410           JUNCTION      0.00   545.62     0  02:32           0        8.09       0.235
  WS02004411           JUNCTION      0.00   545.49     0  02:33           0        8.07       0.241
  WS02004412           JUNCTION      0.00   545.41     0  02:33           0        8.05       0.259
  WS02004413           JUNCTION      0.00   545.37     0  02:34           0        8.03       0.383
  WS02004405           JUNCTION      0.04   545.83     0  02:32     0.00107        8.17       0.257
  WS02006109           JUNCTION      1.23   539.35     0  02:29      0.0347        8.33       0.275
  WS02006110           JUNCTION      0.00   539.35     0  02:29           0         8.3       0.243
  WS02006111           JUNCTION      0.00   561.22     0  02:29           0        8.27       0.055
  WS02006112           JUNCTION      7.75   550.31     0  02:29      0.0414        8.31       0.345
  WS02006113           JUNCTION      0.00   539.58     0  02:29           0        8.28       0.122
  WS02006115           JUNCTION      0.00   546.77     0  02:29           0        8.28       0.256
  WS02006116           JUNCTION      0.00   546.06     0  02:29           0        8.26       0.245
  WS02006230           JUNCTION     10.28   354.34     0  03:14        0.29        7.02       0.186
  WS02006231           JUNCTION      0.00   342.73     0  03:13           0        6.74       0.183
  WS02006232           JUNCTION      0.00   342.66     0  03:13           0        6.76       0.247
  WS02006234           JUNCTION      0.00   341.72     0  03:13           0        6.77       0.125
  WS02006235           JUNCTION      0.00   341.33     0  03:13           0        6.81       0.160
  WS02006238           JUNCTION      0.00   239.59     0  03:09           0        4.41       0.184
  WS02006240           JUNCTION      0.00   237.27     0  03:08           0        4.41       0.277
  WS02006242           JUNCTION      0.00   237.02     0  02:43           0        4.41       0.331
  WS02006243           JUNCTION      0.00   236.67     0  02:43           0        4.42       0.177
  WS02006245           JUNCTION      0.00   236.46     0  02:45           0        4.42       0.181
  WS02006247           JUNCTION      0.00   236.24     0  02:48           0        4.43       0.156
  WS02006248           JUNCTION      0.00   237.32     0  02:25           0        4.43       0.103
  WS02006249           JUNCTION      0.00   240.19     0  02:29           0        4.45       0.222
  WS02006239           JUNCTION      0.00   238.44     0  03:09           0        4.41       0.272
  WS02006251           JUNCTION      0.08   240.95     0  02:26     0.00217        4.46       0.197
  WS02006252           JUNCTION      0.00   200.00     0  02:01           0        4.23       0.010
  WS02006253           JUNCTION      1.03    41.74     0  02:26     0.00535       0.235       1.656
  WS02006256           JUNCTION      0.00   600.00     0  00:00           0        8.86       0.026
  WS02004138           JUNCTION      0.00   285.00     0  00:00           0        8.04       0.064
  WS02004407           JUNCTION      0.00   545.83     0  02:32           0        8.12       0.094
  WS02006228           JUNCTION      0.00   538.12     0  02:29           0        8.31       0.198
  WS02006229           JUNCTION      0.00   538.09     0  02:29           0        8.32       0.135
  WS02006280           JUNCTION      0.00   204.81     0  02:27           0        1.31       0.005
  WS02006284           JUNCTION      0.10   204.80     0  02:27      0.0027        1.31       0.087
  WS02006287           JUNCTION      0.00   204.70     0  02:27           0        1.31       0.053
  WSF200               JUNCTION      0.00   545.37     0  02:34           0        7.99       0.054
  HS02004901           JUNCTION      9.37     9.37     0  02:23      0.0498      0.0501       3.647
  HS02004881           JUNCTION      4.04    40.76     0  02:26      0.0217        0.23       0.122
  HS02004876           JUNCTION      7.43    36.75     0  02:26      0.0417       0.209       0.259
  HS02004870           JUNCTION      7.54    29.42     0  02:26      0.0411       0.167       0.066
  HS02004862           JUNCTION      7.28    22.06     0  02:26      0.0469       0.126       0.137
  HS02004856           JUNCTION      5.65    14.84     0  02:26       0.031      0.0805       1.828
  HS02004852           JUNCTION      0.00     9.33     0  02:26           0      0.0496       0.109
  HS02004848           JUNCTION     15.91    15.91     0  02:26      0.0988      0.0988       0.048
  HS02004842           JUNCTION      0.00     6.79     0  02:52           0      0.0622      26.414
  HS02004837           JUNCTION     19.22    25.66     0  02:25       0.251         0.3       0.273
  HS02004830           JUNCTION      0.15    25.80     0  02:26     0.00423        0.29       0.426
  HS02004824           JUNCTION     19.28    44.91     0  02:27       0.129       0.418       0.129
  HS02004817           JUNCTION      0.60    45.51     0  02:27      0.0169       0.435       3.988
  HS02004807           JUNCTION     13.93    58.94     0  02:27      0.0757       0.494       0.884
  HS02004802           JUNCTION      0.00    59.00     0  02:28           0       0.491       0.813
  HS02004799           JUNCTION     11.15   123.20     0  02:25      0.0613       0.713       0.360
  HS02004792           JUNCTION     47.36   112.13     0  02:24       0.263       0.652       0.064
  HS02004788           JUNCTION     17.07    65.26     0  02:25       0.132        0.39       0.100
  HS02004785           JUNCTION      0.15    48.39     0  02:25     0.00423       0.259       0.188
  HS02004777           JUNCTION      0.03    48.40     0  02:24    0.000846        0.26       2.037
  HS02004770           JUNCTION     39.46    48.64     0  02:23       0.213       0.261       1.203
  HS02004480           JUNCTION      0.00   146.07     0  02:25           0       0.837       0.127
  HS02004479           JUNCTION      0.00    23.09     0  02:27           0       0.137       0.537
  HS02004478           JUNCTION      0.00   204.69     0  02:26           0        1.31       0.032
  YS02001745           JUNCTION    149.28   324.41     0  03:14        1.44        1.46       0.731
  YS02001748           JUNCTION      0.04   433.88     0  03:14     0.00127        1.46       1.590
  YS02001751           JUNCTION      0.01   341.50     0  02:56     0.00031        1.41       1.650
  YS02001754           JUNCTION      0.26   219.04     0  02:57     0.00733        1.39       1.811
  YS02001762           JUNCTION      0.00   200.25     0  02:57           0        1.56       1.365
  YS02001765           JUNCTION      0.00   197.78     0  02:57           0        1.57       1.586
  YS02001767           JUNCTION      0.54   197.10     0  02:57      0.0151        1.59       2.317
  YS02001770           JUNCTION    187.24   195.66     0  02:57        1.65        1.66       1.965
  YS02001774           JUNCTION      0.00    32.96     0  01:57           0      0.0594      73.500
  YS02001779           JUNCTION      0.01    21.63     0  02:26    0.000141      0.0268     133.898
  YS02001882           JUNCTION      0.00     8.74     0  03:00           0      0.0106      22.539
  YS02001884           JUNCTION      0.00    16.67     0  03:00           0      0.0361      17.839
  YS02001759           JUNCTION    180.39   380.29     0  03:01        1.53        3.06       0.755
  YS02001887           JUNCTION    226.70   234.52     0  03:01        1.79        1.81       0.433
  YS02001890           JUNCTION      0.00   231.44     0  02:56           0        1.77       0.481
  YS02001898           JUNCTION      0.00   233.45     0  03:01           0        1.76       0.154
  YS02001901           JUNCTION      0.00   240.48     0  03:02           0        1.76       0.352
  YS02001904           JUNCTION      0.00   244.92     0  03:03           0        1.75       0.325
  YS02001907           JUNCTION      0.00   459.03     0  03:03           0        3.82       0.610
  YS02001910           JUNCTION      0.00   216.76     0  03:02           0        2.08       0.528
  YS02001915           JUNCTION    132.40   205.84     0  03:01        1.22        2.08       0.253
  YS02001918           JUNCTION      0.00    71.10     0  03:02           0       0.866       0.176
  YS02001619           JUNCTION    129.20   129.20     0  03:01        1.21        1.21       0.975
  YS02001629           JUNCTION      0.00   190.51     0  02:57           0        1.13       2.515
  YS02001641           JUNCTION      0.00   307.92     0  03:04           0        2.45       0.870
  YS02001644           JUNCTION    142.03   444.79     0  03:04        1.38        4.04       0.651
  YS02001652           JUNCTION      0.00   228.99     0  03:09           0        1.27       1.907
  YS02001655           JUNCTION      0.15   330.70     0  02:52     0.00434        1.29       1.765
  YS02001920           JUNCTION      2.87    67.64     0  03:02      0.0809       0.868       0.286
  YS02001923           JUNCTION      0.04    64.78     0  03:02     0.00106       0.788       0.052
  YS02001926           JUNCTION      0.05    64.97     0  03:01     0.00147       0.789       0.356
  YS02001929           JUNCTION     64.98    64.98     0  03:01       0.788       0.788       0.051
  YS02001658           JUNCTION      0.00   543.26     0  03:09           0        1.38       1.405
  YS02001661           JUNCTION      0.00   470.77     0  03:47           0        2.04       0.485
  YS02001664           JUNCTION    164.01   390.99     0  03:48        1.32        1.97       0.290
  YS02001622           JUNCTION      0.00   163.98     0  02:57           0         1.2       2.669
  YS02001633           JUNCTION    144.48   307.27     0  03:04        1.43         2.5       1.305
  YS02001649           JUNCTION      0.00   625.32     0  03:01           0        3.93       0.956
  YS02001757           JUNCTION      0.00  1101.82     0  03:02           0        8.02       1.163
  YS02001895           JUNCTION      0.00   234.72     0  03:01           0        1.76       0.240
  YS02001625           JUNCTION      0.00   190.62     0  02:57           0        1.16       3.455
  YS02163301           JUNCTION      0.00   170.75     0  03:10           0         1.1       2.231
  YS02163601           JUNCTION      0.11   307.33     0  03:04      0.0031        2.47       1.236
  YS02164001           JUNCTION      0.00   307.69     0  03:04           0        2.45       0.830
  YS02001647           JUNCTION      0.00   444.88     0  03:04           0        2.87       0.999
  YSB1154              JUNCTION     13.22    13.22     0  02:24      0.0743      0.0752       1.964
  YSB6556              JUNCTION      0.00    13.14     0  02:25           0      0.0759       1.671
  YSB1174              JUNCTION     10.23    10.23     0  02:22       0.054      0.0546       2.413
  YSB1171              JUNCTION      0.00    23.08     0  02:25           0       0.136       4.884
  YS02006553           JUNCTION      0.00   451.75     0  03:03           0        3.81       0.388
  YS02006561           JUNCTION      0.00   680.02     0  03:03           0        5.39       0.002
  YS02006556           JUNCTION      0.00   453.77     0  03:02           0        3.81       0.283
  YS02006558           JUNCTION    197.15   673.67     0  03:03        1.63        5.42       0.100
  YS02001783           JUNCTION      0.00   645.52     0  03:03           0        5.39       0.036
  YS02001784           JUNCTION      1.06   643.92     0  03:03      0.0299        5.42       0.057
  YS02001786           JUNCTION      0.06   638.04     0  03:03     0.00159        5.42       0.055
  YS02001788           JUNCTION      0.07   635.20     0  03:03       0.002        5.42       0.032
  YS02001790           JUNCTION      0.15   634.77     0  03:03     0.00437        5.42       0.040
  YS02001791           JUNCTION      0.00   635.97     0  03:03           0        5.42       0.020
  YS02001793           JUNCTION      0.00   632.76     0  03:04           0        5.42       0.009
  WS02004139           JUNCTION      0.32   290.33     0  00:00     0.00905        8.04       0.485
  WSC                  OUTFALL       0.00   855.66     0  02:38           0        16.5       0.000
  3                    OUTFALL       0.00   597.65     0  00:00           0        6.43       0.000
  4                    OUTFALL       0.00     4.71     0  02:32           0     0.00496       0.000
  5                    OUTFALL       0.00     0.00     0  00:00           0           0       0.000 ltr
  JK-storage           STORAGE       0.00   635.48     0  03:04           0        5.57     -37.133
  CC-storage           STORAGE       0.00  1101.74     0  03:02           0        7.84       0.807
  XR-storage           STORAGE     442.93   442.93     0  03:01        8.07        8.67       0.000
  
  
  **********************
  Node Surcharge Summary
  **********************
  
  Surcharging occurs when water rises above the top of the highest conduit.
  ---------------------------------------------------------------------
                                               Max. Height   Min. Depth
                                   Hours       Above Crown    Below Rim
  Node                 Type      Surcharged         Meters       Meters
  ---------------------------------------------------------------------
  WS02006109           JUNCTION        1.49          0.154        1.666
  WS02006110           JUNCTION        0.58          0.014        1.836
  WS02006112           JUNCTION        0.97          0.058        1.622
  WS02006232           JUNCTION        1.26          0.106        1.374
  WS02006234           JUNCTION        0.61          0.019        1.221
  WS02006235           JUNCTION        0.92          0.058        1.232
  WS02006238           JUNCTION        1.01          0.073        1.357
  WS02006242           JUNCTION        0.39          0.015        0.805
  WS02006239           JUNCTION        0.41          0.014        1.276
  WS02006256           JUNCTION        0.01          1.050        0.000
  WS02006228           JUNCTION        1.46          0.182        2.018
  YS02001748           JUNCTION        4.32          0.226        0.964
  YS02001751           JUNCTION        4.74          1.026        0.174
  YS02001754           JUNCTION        5.18          0.996        0.154
  YS02001762           JUNCTION        5.50          1.015        0.135
  YS02001765           JUNCTION        5.47          0.966        0.134
  YS02001767           JUNCTION        5.43          0.921        0.109
  YS02001770           JUNCTION        5.40          0.871        0.049
  YS02001774           JUNCTION        5.49          0.972        0.078
  YS02001779           JUNCTION        5.14          0.680        0.000
  YS02001759           JUNCTION        5.53          1.053        0.157
  YS02001907           JUNCTION        0.22          0.045        0.905
  YS02001619           JUNCTION        4.71          0.610        0.000
  YS02001629           JUNCTION        4.75          0.470        0.000
  YS02001641           JUNCTION        5.48          0.954        0.146
  YS02001644           JUNCTION        5.48          0.920        0.000
  YS02001652           JUNCTION        5.24          1.075        0.055
  YS02001655           JUNCTION        4.77          1.200        0.000
  YS02001658           JUNCTION        4.35          1.300        0.000
  YS02001661           JUNCTION        0.06          1.088        0.302
  YS02001622           JUNCTION        4.84          0.620        0.000
  YS02001633           JUNCTION        5.45          0.950        0.110
  YS02001649           JUNCTION        5.51          1.050        0.000
  YS02001757           JUNCTION        5.64          1.157        0.053
  YS02001625           JUNCTION        5.31          0.780        0.000
  YS02163301           JUNCTION        5.42          0.903        0.127
  YS02163601           JUNCTION        5.51          1.022        0.058
  YS02164001           JUNCTION        5.46          0.953        0.147
  YS02001647           JUNCTION        5.27          0.799        0.101
  YS02006553           JUNCTION        0.36          0.063        1.127
  
  
  *********************
  Node Flooding Summary
  *********************
  
  Flooding refers to all water that overflows a node, whether it ponds or not.
  --------------------------------------------------------------------------
                                                             Total   Maximum
                                 Maximum   Time of Max       Flood    Ponded
                        Hours       Rate    Occurrence      Volume     Depth
  Node                 Flooded       LPS   days hr:min    10^6 ltr    Meters
  --------------------------------------------------------------------------
  WS02006256              0.01    406.11      0  00:00       0.001     0.000
  YS02001779              0.84      8.74      0  04:00       0.005     0.000
  YS02001619              0.01     16.58      0  03:19       0.000     0.000
  YS02001629              0.01     27.52      0  03:20       0.000     0.000
  YS02001644              2.98    412.49      0  04:10       1.375     0.000
  YS02001655              0.01    167.11      0  03:05       0.001     0.000
  YS02001658              0.01    194.17      0  03:14       0.001     0.000
  YS02001622              0.01     33.21      0  03:18       0.000     0.000
  YS02001649              0.01     21.62      0  03:14       0.000     0.000
  YS02001625              0.05     12.51      0  03:18       0.000     0.000
  
  
  **********************
  Storage Volume Summary
  **********************
  
  --------------------------------------------------------------------------------------------------
                         Average     Avg  Evap Exfil       Maximum     Max    Time of Max    Maximum
                          Volume    Pcnt  Pcnt  Pcnt        Volume    Pcnt     Occurrence    Outflow
  Storage Unit           1000 m3    Full  Loss  Loss       1000 m3    Full    days hr:min        LPS
  --------------------------------------------------------------------------------------------------
  JK-storage               0.001       0     0     0         0.151      52       0  00:00     600.00
  CC-storage               2.743      17     0     0         3.784      24       0  04:06     200.00
  XR-storage               0.624      67     0     0         0.881      95       0  05:20     285.00
  
  
  ***********************
  Outfall Loading Summary
  ***********************
  
  -----------------------------------------------------------
                         Flow       Avg       Max       Total
                         Freq      Flow      Flow      Volume
  Outfall Node           Pcnt       LPS       LPS    10^6 ltr
  -----------------------------------------------------------
  WSC                   99.99    660.47    855.66      16.460
  3                     96.13    311.61    597.65       6.434
  4                     12.79      1.93      4.71       0.005
  5                      0.00      0.00      0.00       0.000
  -----------------------------------------------------------
  System                52.23    974.01   1367.54      22.899
  
  
  ********************
  Link Flow Summary
  ********************
  
  -----------------------------------------------------------------------------
                                 Maximum  Time of Max   Maximum    Max/    Max/
                                  |Flow|   Occurrence   |Veloc|    Full    Full
  Link                 Type          LPS  days hr:min     m/sec    Flow   Depth
  -----------------------------------------------------------------------------
  WS02003066WSF200     CONDUIT    545.37     0  02:34      2.72    0.09    0.23
  WS02006287WS02006284 CONDUIT    204.71     0  02:27      1.62    0.09    0.22
  WS02006284WS02006280 CONDUIT    204.81     0  02:27      1.86    0.09    0.20
  WS02006280WS02006229 CONDUIT    204.81     0  02:27      2.99    0.04    0.14
  WS02006229WS02006228 CONDUIT    538.12     0  02:29      1.07    1.78    1.00
  WS02006256WS02006235 CONDUIT    177.52     0  00:01      2.73    1.88    1.00
  WS02006253WS02006251 CONDUIT     40.88     0  02:26      0.43    0.12    0.71
  WS02006252WS02006251 CONDUIT    200.34     0  02:01      1.97    0.74    0.76
  WS02006251WS02006249 CONDUIT    240.19     0  02:29      0.95    0.69    0.72
  WS02006249WS02006248 CONDUIT    237.32     0  02:25      1.03    1.30    0.72
  WS02006248WS02006247 CONDUIT    236.24     0  02:48      1.00    0.51    0.77
  WS02006247WS02006245 CONDUIT    236.46     0  02:45      0.96    1.87    0.82
  WS02006245WS02006243 CONDUIT    236.67     0  02:43      0.99    0.70    0.85
  WS02006243WS02006242 CONDUIT    237.02     0  02:43      0.81    0.51    0.94
  WS02006242WS02006240 CONDUIT    237.27     0  03:08      0.69    0.94    0.99
  WS02006240WS02006239 CONDUIT    238.44     0  03:09      0.68    0.75    1.00
  WS02006239WS02006238 CONDUIT    239.59     0  03:09      0.69    0.77    1.00
  WS02006238WS02006235 CONDUIT    239.58     0  03:10      1.32    0.53    1.00
  WS02006235WS02006234 CONDUIT    341.72     0  03:13      0.95    3.61    1.00
  WS02006234WS02006232 CONDUIT    342.66     0  03:13      1.17    0.69    1.00
  WS02006232WS02006231 CONDUIT    342.73     0  03:13      0.95    0.72    0.98
  WS02006231WS02006230 CONDUIT    344.06     0  03:14      1.30    5.22    0.94
  WS02006230WS02006229 CONDUIT    356.35     0  03:14      0.93    7.93    1.00
  WS02006228WS02006109 CONDUIT    538.12     0  02:29      1.07    2.35    1.00
  WS02006116WS02004401 CONDUIT    545.82     0  02:30      0.77    0.75    0.85
  WS02006115WS02006116 CONDUIT    546.06     0  02:29      0.84    0.70    0.77
  WS02006113WS02006111 CONDUIT    561.22     0  02:29      2.46    0.67    0.46
  WS02006112WS02006115 CONDUIT    546.77     0  02:29      0.75    0.32    0.87
  WS02006111WS02006112 CONDUIT    543.24     0  02:29      1.51    0.26    0.67
  WS02006110WS02006113 CONDUIT    539.58     0  02:29      1.28    0.49    0.78
  WS02006109WS02006110 CONDUIT    539.35     0  02:29      1.07    1.04    1.00
  WS02004411WS02004412 CONDUIT    545.41     0  02:33      0.93    0.77    0.70
  WS02004401WS02004402 CONDUIT    545.75     0  02:31      0.75    0.66    0.87
  WS02004413WS02003067 CONDUIT    545.35     0  02:34      1.12    0.23    0.59
  WS02004412WS02004413 CONDUIT    545.37     0  02:34      0.83    0.37    0.78
  WS02004410WS02004411 CONDUIT    545.49     0  02:33      0.94    0.75    0.69
  WS02004409WS02004410 CONDUIT    545.62     0  02:32      0.96    0.71    0.68
  WS02004407WS02004409 CONDUIT    545.82     0  02:32      1.44    0.19    0.49
  WS02004406WS02004407 CONDUIT    545.83     0  02:32      1.05    0.24    0.63
  WS02004405WS02004406 CONDUIT    545.86     0  02:31      0.70    1.08    0.96
  WS02004404WS02004405 CONDUIT    545.79     0  02:32      0.70    5.35    0.96
  WS02004403WS02004404 CONDUIT    545.66     0  02:31      0.72    0.39    0.93
  WS02004402WS02004403 CONDUIT    545.70     0  02:31      0.74    0.78    0.89
  WS02004139WS02001211 CONDUIT    285.88     0  03:23      0.80    0.36    0.54
  WS02004138WS02004139 CONDUIT    290.01     0  00:00      3.34    0.06    0.39
  WS02003067WS02003066 CONDUIT    545.37     0  02:34      1.22    0.17    0.42
  WS02001213WS02003059 CONDUIT    295.46     0  03:21      0.80    0.49    0.73
  WS02001212WS02001213 CONDUIT    294.46     0  03:22      1.19    0.45    0.42
  WS02001211WS02001212 CONDUIT    293.87     0  03:22      0.67    0.22    0.59
  WS02003072WS02003073 CONDUIT    853.84     0  02:37      1.67    1.84    0.46
  WS02003069WS02003072 CONDUIT    853.83     0  02:37      1.57    0.41    0.48
  WS02003060WS02003069 CONDUIT    853.52     0  02:36      1.82    0.33    0.43
  WS02003059WS02003060 CONDUIT    296.83     0  03:21      0.82    0.19    0.63
  HS02004901HS02004770 CONDUIT      9.22     0  02:24      0.05    0.03    0.31
  HS02004876HS02004881 CONDUIT     36.81     0  02:26      0.59    0.39    0.09
  HS02004870HS02004876 CONDUIT     29.40     0  02:26      0.41    0.02    0.10
  HS02004842HS02004848 CONDUIT      6.79     0  02:52      0.04    0.00    0.28
  HS02004837HS02004842 CONDUIT      7.01     0  03:02      0.41    0.00    0.29
  HS02004830HS02004837 CONDUIT     25.65     0  02:26      0.46    0.03    0.08
  HS02004824HS02004830 CONDUIT     25.79     0  02:27      0.49    0.03    0.08
  HS02004817HS02004824 CONDUIT     44.91     0  02:27      0.17    0.02    0.41
  HS02004770HS02004777 CONDUIT     48.37     0  02:24      0.21    0.09    0.33
  HS02004799HS02004480 CONDUIT    123.11     0  02:25      0.58    0.16    0.31
  HS02004792HS02004799 CONDUIT    112.10     0  02:25      0.66    0.07    0.24
  HS02004788HS02004792 CONDUIT     65.23     0  02:26      0.81    0.04    0.11
  HS02004785HS02004788 CONDUIT     48.34     0  02:26      0.49    0.36    0.14
  HS02004777HS02004785 CONDUIT     48.24     0  02:25      0.26    0.06    0.26
  HS02004480HS02004478 CONDUIT    146.06     0  02:26      0.94    0.62    0.22
  HS02004479HS02004480 CONDUIT     23.22     0  02:28      0.27    0.02    0.30
  HS02004862HS02004870 CONDUIT     22.03     0  02:27      0.49    0.02    0.06
  HS02004848HS02004852 CONDUIT      9.33     0  02:26      0.33    0.01    0.04
  HS02004856HS02004862 CONDUIT     14.82     0  02:26      0.35    0.01    0.06
  HS02004852HS02004856 CONDUIT      9.30     0  02:27      0.14    0.01    0.10
  HS02004802HS02004478 CONDUIT     59.19     0  02:29      0.33    0.05    0.26
  HS02004478WS02006287 CONDUIT    204.70     0  02:27      1.31    0.06    0.17
  HS02004817HS02004807 CONDUIT     45.68     0  02:29      0.13    0.03    0.52
  HS02004807HS02004802 CONDUIT     59.00     0  02:28      0.28    0.11    0.31
  YS02001759YS02001757 CONDUIT    381.25     0  03:01      0.49    0.27    1.00
  YS02001762YS02001759 CONDUIT    202.47     0  02:57      0.26    0.23    1.00
  YS02001765YS02001762 CONDUIT    200.25     0  02:57      0.28    0.19    1.00
  YS02001770YS02001767 CONDUIT    196.56     0  02:57      0.25    0.78    1.00
  YS02001774YS02001770 CONDUIT     32.96     0  01:57      0.22    0.02    1.00
  YS02001779YS02001774 CONDUIT     21.63     0  02:26      0.05    0.01    1.00
  YS02001649YS02001757 CONDUIT    625.33     0  03:01      0.80    0.38    1.00
  YS02001767YS02001765 CONDUIT    197.78     0  02:57      0.30    0.25    1.00
  YS02006561YS02001783 CONDUIT    645.52     0  03:03      2.11    0.33    0.60
  YS02001783YS02001784 CONDUIT    642.86     0  03:03      1.56    0.89    0.76
  YS02001784YS02001785 CONDUIT    637.99     0  03:03      1.68    1.48    0.71
  YS02001788YS02001790 CONDUIT    634.61     0  03:03      2.21    0.47    0.56
  YS02001790YS02001791 CONDUIT    635.97     0  03:03      2.61    0.69    0.49
  YS02001791YS02001793 CONDUIT    632.76     0  03:04      5.22    0.27    0.30
  YS02001910YS02001907 CONDUIT    217.16     0  03:02      0.49    0.12    0.91
  YS02001786YS02001788 CONDUIT    635.13     0  03:03      2.13    1.22    0.57
  YS02001915YS02001910 CONDUIT    216.76     0  03:02      0.55    0.11    0.71
  YS02001918YS02001915 CONDUIT     75.90     0  03:02      0.44    0.04    0.43
  YS02001923YS02001920 CONDUIT     64.77     0  03:02      0.57    0.03    0.22
  YS02001926YS02001923 CONDUIT     64.74     0  03:02      0.66    0.09    0.18
  YS02001929YS02001926 CONDUIT     64.92     0  03:01      0.71    0.03    0.17
  YS02001920YS02001918 CONDUIT     71.10     0  03:02      0.57    0.07    0.29
  YS02001629YS02163301 CONDUIT    170.75     0  03:10      0.22    0.21    1.00
  YS02001619YS02001622 CONDUIT    163.98     0  02:57      0.57    0.24    1.00
  YS02001622YS02001625 CONDUIT    190.62     0  02:57      0.31    0.10    1.00
  YS02001625YS02001629 CONDUIT    190.51     0  02:57      0.24    0.09    1.00
  YS02163301YS02001633 CONDUIT    170.92     0  03:10      0.22    0.16    1.00
  YS02163601YS02164001 CONDUIT    307.69     0  03:04      0.39    0.27    1.00
  YS02164001YS02001641 CONDUIT    307.92     0  03:04      0.39    0.42    1.00
  YS02001641YS02001644 CONDUIT    308.13     0  03:04      0.39    1.00    1.00
  YS02001647YS02001649 CONDUIT    444.26     0  03:04      0.57    0.23    1.00
  YS02006553YS02006556 CONDUIT    453.77     0  03:02      0.58    0.39    0.99
  YS02006556YS02006558 CONDUIT    483.21     0  03:03      0.62    0.38    1.00
  YSB6556YSB1171       CONDUIT     13.19     0  02:28      0.06    0.01    0.57
  YS02001907YS02006553 CONDUIT    451.75     0  03:03      0.50    0.53    1.00
  YS02006558YS02006561 CONDUIT    680.02     0  03:03      3.09    1.50    0.74
  YS02001633YS02163601 CONDUIT    307.22     0  03:04      0.39    0.32    1.00
  YS02001644YS02001647 CONDUIT    444.88     0  03:04      0.57    0.26    1.00
  YS02001745YS02001748 CONDUIT    433.84     0  03:14      1.42    0.17    0.93
  YS02001748YS02001751 CONDUIT    341.49     0  02:56      1.00    0.17    1.00
  YS02001751YS02001754 CONDUIT    218.78     0  02:57      0.86    0.11    1.00
  YS02001754YS02001757 CONDUIT    215.69     0  02:52      0.33    0.09    1.00
  YS02001882YS02001884 CONDUIT     11.42     0  02:52      0.09    0.01    0.65
  YS02001884YS02001887 CONDUIT     16.67     0  03:00      0.05    0.02    0.74
  YS02001890YS02001895 CONDUIT    234.72     0  03:01      0.39    0.11    0.71
  YS02001895YS02001898 CONDUIT    233.45     0  03:01      0.51    0.41    0.57
  YS02001898YS02001901 CONDUIT    240.48     0  03:02      0.45    0.16    0.65
  YS02001901YS02001904 CONDUIT    244.92     0  03:03      0.42    0.38    0.70
  YS02001904YS02001907 CONDUIT    250.64     0  03:04      0.36    0.09    0.85
  YS02001887YS02001890 CONDUIT    231.44     0  02:56      0.35    0.40    0.80
  YS02001652YS02001649 CONDUIT    228.89     0  03:09      0.56    0.11    1.00
  YS02001655YS02001652 CONDUIT    228.99     0  03:09      0.91    0.11    1.00
  YS02001658YS02001655 CONDUIT    330.54     0  02:52      1.15    0.14    1.00
  YS02001661YS02001658 CONDUIT    543.26     0  03:09      1.49    0.21    1.00
  YS02001664YS02001661 CONDUIT    470.77     0  03:47      1.39    0.15    0.70
  YSB1154YSB6556       CONDUIT     13.14     0  02:25      0.16    0.02    0.46
  YSB1174YSB1171       CONDUIT     10.08     0  02:23      0.04    0.02    0.57
  YSB1171HS02004479    CONDUIT     23.09     0  02:27      0.54    0.02    0.44
  HS02004881HS02006253 CONDUIT     40.75     0  02:26      1.48    0.01    0.14
  YS02001793JiankangQianchi CONDUIT    635.48     0  03:04     16.40    0.05    0.50
  YS02001757CaochengTiaoxuchi CONDUIT   1101.74     0  03:02      1.64    0.48    1.00
  WSF200WS02003060     CONDUIT    545.40     0  02:35      1.65    0.12    0.33
  1                    CONDUIT    855.66     0  02:38      3.19    0.30    0.37
  2                    CONDUIT      4.71     0  02:32      1.96    0.01    0.07
  3                    CONDUIT    597.65     0  00:00     10.05    0.95    0.86
  4                    CONDUIT      0.00     0  00:00      0.00    0.00    0.00
  CC-Pump-1            PUMP         0.00     0  00:00              0.00
  CC-Pump-2            PUMP       200.00     0  02:01              1.00
  JK-Pump-1            PUMP       300.00     0  00:00              1.00
  JK-Pump-2            PUMP       300.00     0  00:00              1.00
  XR-Pump-1            PUMP        95.00     0  00:00              1.00
  XR-Pump-2            PUMP        95.00     0  00:00              1.00
  XR-Pump-3            PUMP        95.00     0  00:00              1.00
  XR-Pump-4            PUMP         0.00     0  00:00              0.00
  
  
  ***************************
  Flow Classification Summary
  ***************************
  
  -------------------------------------------------------------------------------------
                      Adjusted    ---------- Fraction of Time in Flow Class ---------- 
                       /Actual         Up    Down  Sub   Sup   Up    Down  Norm  Inlet 
  Conduit               Length    Dry  Dry   Dry   Crit  Crit  Crit  Crit  Ltd   Ctrl  
  -------------------------------------------------------------------------------------
  WS02003066WSF200        1.00   0.06  0.00  0.00  0.00  0.94  0.00  0.00  0.61  0.00
  WS02006287WS02006284    1.00   0.03  0.01  0.00  0.60  0.36  0.00  0.00  0.77  0.00
  WS02006284WS02006280    1.00   0.03  0.00  0.00  0.00  0.00  0.00  0.97  0.00  0.00
  WS02006280WS02006229    1.00   0.03  0.00  0.00  0.00  0.00  0.00  0.97  0.00  0.00
  WS02006229WS02006228    1.00   0.00  0.00  0.00  0.99  0.00  0.00  0.01  0.00  0.00
  WS02006256WS02006235    1.00   0.00  0.00  0.00  1.00  0.00  0.00  0.00  0.00  0.00
  WS02006253WS02006251    1.00   0.02  0.01  0.00  0.97  0.00  0.00  0.00  0.00  0.00
  WS02006252WS02006251    1.00   0.06  0.00  0.00  0.00  0.00  0.94  0.00  0.00  0.00
  WS02006251WS02006249    1.00   0.00  0.00  0.00  1.00  0.00  0.00  0.00  0.23  0.00
  WS02006249WS02006248    1.00   0.00  0.01  0.00  0.93  0.00  0.05  0.00  0.00  0.00
  WS02006248WS02006247    1.00   0.02  0.00  0.00  0.98  0.00  0.00  0.01  0.11  0.00
  WS02006247WS02006245    1.00   0.02  0.00  0.00  0.97  0.00  0.00  0.01  0.00  0.00
  WS02006245WS02006243    1.00   0.01  0.00  0.00  0.95  0.00  0.00  0.03  0.02  0.00
  WS02006243WS02006242    1.00   0.01  0.00  0.00  0.99  0.00  0.00  0.00  0.20  0.00
  WS02006242WS02006240    1.00   0.00  0.00  0.00  1.00  0.00  0.00  0.00  0.00  0.00
  WS02006240WS02006239    1.00   0.00  0.00  0.00  0.97  0.00  0.00  0.03  0.02  0.00
  WS02006239WS02006238    1.00   0.00  0.00  0.00  1.00  0.00  0.00  0.00  0.00  0.00
  WS02006238WS02006235    1.00   0.00  0.00  0.00  1.00  0.00  0.00  0.00  0.00  0.00
  WS02006235WS02006234    1.00   0.00  0.00  0.00  0.96  0.00  0.04  0.00  0.00  0.00
  WS02006234WS02006232    1.00   0.00  0.00  0.00  1.00  0.00  0.00  0.00  0.00  0.00
  WS02006232WS02006231    1.00   0.00  0.00  0.00  0.99  0.00  0.01  0.00  0.00  0.00
  WS02006231WS02006230    1.00   0.00  0.00  0.00  0.56  0.00  0.44  0.00  0.00  0.00
  WS02006230WS02006229    1.00   0.00  0.00  0.00  0.99  0.00  0.00  0.01  0.01  0.00
  WS02006228WS02006109    1.00   0.00  0.00  0.00  1.00  0.00  0.00  0.00  0.00  0.00
  WS02006116WS02004401    1.00   0.02  0.00  0.00  0.98  0.00  0.00  0.00  0.00  0.00
  WS02006115WS02006116    1.00   0.02  0.00  0.00  0.97  0.00  0.00  0.01  0.01  0.00
  WS02006113WS02006111    1.00   0.02  0.00  0.00  0.00  0.98  0.00  0.00  0.09  0.00
  WS02006112WS02006115    1.00   0.02  0.00  0.00  0.98  0.00  0.00  0.00  0.00  0.00
  WS02006111WS02006112    1.00   0.02  0.00  0.00  0.98  0.00  0.00  0.00  0.98  0.00
  WS02006110WS02006113    1.00   0.01  0.00  0.00  0.98  0.00  0.00  0.00  0.00  0.00
  WS02006109WS02006110    1.00   0.00  0.01  0.00  0.98  0.00  0.00  0.00  0.00  0.00
  WS02004411WS02004412    1.00   0.04  0.00  0.00  0.96  0.00  0.00  0.00  0.00  0.00
  WS02004401WS02004402    1.00   0.02  0.00  0.00  0.98  0.00  0.00  0.00  0.00  0.00
  WS02004413WS02003067    1.00   0.04  0.01  0.00  0.00  0.00  0.95  0.00  0.00  0.00
  WS02004412WS02004413    1.00   0.04  0.00  0.00  0.96  0.00  0.00  0.00  0.01  0.00
  WS02004410WS02004411    1.00   0.04  0.00  0.00  0.96  0.00  0.00  0.00  0.00  0.00
  WS02004409WS02004410    1.00   0.04  0.00  0.00  0.96  0.00  0.00  0.00  0.00  0.00
  WS02004407WS02004409    1.00   0.04  0.00  0.00  0.96  0.00  0.00  0.00  0.80  0.00
  WS02004406WS02004407    1.00   0.00  0.04  0.00  0.96  0.00  0.00  0.00  0.00  0.00
  WS02004405WS02004406    1.00   0.00  0.00  0.00  1.00  0.00  0.00  0.00  0.02  0.00
  WS02004404WS02004405    1.00   0.00  0.00  0.00  1.00  0.00  0.00  0.00  0.00  0.00
  WS02004403WS02004404    1.00   0.00  0.02  0.00  0.98  0.00  0.00  0.00  0.02  0.00
  WS02004402WS02004403    1.00   0.02  0.00  0.00  0.98  0.00  0.00  0.00  0.00  0.00
  WS02004139WS02001211    1.00   0.00  0.00  0.00  0.99  0.00  0.00  0.00  0.00  0.00
  WS02004138WS02004139    1.00   0.00  0.00  0.00  0.99  0.01  0.00  0.00  1.00  0.00
  WS02003067WS02003066    1.00   0.05  0.01  0.00  0.94  0.00  0.00  0.00  0.00  0.00
  WS02001213WS02003059    1.00   0.00  0.00  0.00  0.99  0.00  0.00  0.00  0.00  0.00
  WS02001212WS02001213    1.00   0.00  0.00  0.00  0.92  0.00  0.08  0.00  0.00  0.00
  WS02001211WS02001212    1.00   0.00  0.00  0.00  1.00  0.00  0.00  0.00  0.00  0.00
  WS02003072WS02003073    1.00   0.00  0.00  0.00  0.00  0.00  0.00  1.00  0.00  0.00
  WS02003069WS02003072    1.00   0.00  0.00  0.00  0.99  0.01  0.00  0.00  0.22  0.00
  WS02003060WS02003069    1.00   0.00  0.00  0.00  0.99  0.01  0.00  0.00  0.00  0.00
  WS02003059WS02003060    1.00   0.00  0.00  0.00  0.99  0.01  0.00  0.00  0.01  0.00
  HS02004901HS02004770    1.00   0.03  0.00  0.00  0.97  0.00  0.00  0.00  0.00  0.00
  HS02004876HS02004881    1.00   0.02  0.00  0.00  0.98  0.00  0.00  0.00  0.00  0.00
  HS02004870HS02004876    1.00   0.01  0.00  0.00  0.99  0.00  0.00  0.00  0.95  0.00
  HS02004842HS02004848    1.00   0.00  0.03  0.00  0.97  0.00  0.00  0.00  0.61  0.00
  HS02004837HS02004842    1.00   0.00  0.00  0.00  0.99  0.01  0.00  0.00  0.11  0.00
  HS02004830HS02004837    1.00   0.00  0.00  0.00  1.00  0.00  0.00  0.00  0.99  0.00
  HS02004824HS02004830    1.00   0.00  0.00  0.00  1.00  0.00  0.00  0.00  0.00  0.00
  HS02004817HS02004824    1.00   0.00  0.00  0.00  1.00  0.00  0.00  0.00  1.00  0.00
  HS02004770HS02004777    1.00   0.00  0.03  0.00  0.97  0.00  0.00  0.00  0.03  0.00
  HS02004799HS02004480    1.00   0.00  0.01  0.00  0.96  0.00  0.02  0.00  0.00  0.00
  HS02004792HS02004799    1.00   0.00  0.00  0.00  0.99  0.01  0.00  0.00  0.98  0.00
  HS02004788HS02004792    1.00   0.00  0.00  0.00  0.99  0.01  0.00  0.00  0.98  0.00
  HS02004785HS02004788    1.00   0.00  0.00  0.00  1.00  0.00  0.00  0.00  0.00  0.00
  HS02004777HS02004785    1.00   0.00  0.00  0.00  1.00  0.00  0.00  0.00  0.13  0.00
  HS02004480HS02004478    1.00   0.03  0.00  0.00  0.65  0.00  0.00  0.31  0.00  0.00
  HS02004479HS02004480    1.00   0.02  0.00  0.00  0.98  0.00  0.00  0.00  0.12  0.00
  HS02004862HS02004870    1.00   0.00  0.00  0.00  1.00  0.00  0.00  0.00  0.06  0.00
  HS02004848HS02004852    1.00   0.03  0.00  0.00  0.97  0.00  0.00  0.00  0.69  0.00
  HS02004856HS02004862    1.00   0.00  0.04  0.00  0.96  0.00  0.00  0.00  0.81  0.00
  HS02004852HS02004856    1.00   0.03  0.00  0.00  0.97  0.00  0.00  0.00  0.86  0.00
  HS02004802HS02004478    1.00   0.03  0.00  0.00  0.97  0.00  0.00  0.00  0.03  0.00
  HS02004478WS02006287    1.00   0.04  0.00  0.00  0.75  0.22  0.00  0.00  0.77  0.00
  HS02004817HS02004807    1.00   0.00  0.03  0.00  0.97  0.00  0.00  0.00  0.01  0.00
  HS02004807HS02004802    1.00   0.03  0.00  0.00  0.96  0.00  0.00  0.00  0.00  0.00
  YS02001759YS02001757    1.00   0.00  0.00  0.00  1.00  0.00  0.00  0.00  0.16  0.00
  YS02001762YS02001759    1.00   0.00  0.00  0.00  1.00  0.00  0.00  0.00  0.03  0.00
  YS02001765YS02001762    1.00   0.00  0.00  0.00  1.00  0.00  0.00  0.00  0.15  0.00
  YS02001770YS02001767    1.00   0.00  0.00  0.00  1.00  0.00  0.00  0.00  0.00  0.00
  YS02001774YS02001770    1.00   0.00  0.03  0.00  0.97  0.00  0.00  0.00  0.03  0.00
  YS02001779YS02001774    1.00   0.00  0.00  0.00  1.00  0.00  0.00  0.00  0.21  0.00
  YS02001649YS02001757    1.00   0.00  0.00  0.00  1.00  0.00  0.00  0.00  0.16  0.00
  YS02001767YS02001765    1.00   0.00  0.00  0.00  1.00  0.00  0.00  0.00  0.01  0.00
  YS02006561YS02001783    1.00   0.05  0.00  0.00  0.00  0.95  0.00  0.00  0.60  0.00
  YS02001783YS02001784    1.00   0.00  0.05  0.00  0.95  0.00  0.00  0.00  0.01  0.00
  YS02001784YS02001785    1.00   0.00  0.00  0.00  1.00  0.00  0.00  0.00  0.19  0.00
  YS02001788YS02001790    1.00   0.00  0.00  0.00  0.05  0.95  0.00  0.00  0.60  0.00
  YS02001790YS02001791    1.00   0.00  0.00  0.00  0.01  0.99  0.00  0.00  0.74  0.00
  YS02001791YS02001793    1.00   0.00  0.00  0.00  0.00  1.00  0.00  0.00  0.00  0.00
  YS02001910YS02001907    1.00   0.00  0.00  0.00  0.98  0.00  0.00  0.02  0.12  0.00
  YS02001786YS02001788    1.00   0.00  0.00  0.00  0.05  0.95  0.00  0.00  0.00  0.00
  YS02001915YS02001910    1.00   0.00  0.00  0.00  0.99  0.01  0.00  0.00  0.18  0.00
  YS02001918YS02001915    1.00   0.00  0.01  0.00  0.99  0.00  0.00  0.00  0.69  0.00
  YS02001923YS02001920    1.00   0.00  0.00  0.00  1.00  0.00  0.00  0.00  1.00  0.00
  YS02001926YS02001923    1.00   0.00  0.02  0.00  0.00  0.00  0.98  0.00  0.00  0.00
  YS02001929YS02001926    1.00   0.00  0.03  0.00  0.97  0.00  0.00  0.00  0.87  0.00
  YS02001920YS02001918    1.00   0.00  0.01  0.00  0.99  0.00  0.00  0.00  0.00  0.00
  YS02001629YS02163301    1.00   0.04  0.00  0.00  0.96  0.00  0.00  0.00  0.00  0.00
  YS02001619YS02001622    1.00   0.03  0.00  0.00  0.97  0.00  0.00  0.00  0.00  0.00
  YS02001622YS02001625    1.00   0.03  0.00  0.00  0.97  0.00  0.00  0.00  0.07  0.00
  YS02001625YS02001629    1.00   0.03  0.01  0.00  0.94  0.00  0.02  0.00  0.00  0.00
  YS02163301YS02001633    1.00   0.00  0.04  0.00  0.96  0.00  0.00  0.00  0.00  0.00
  YS02163601YS02164001    1.00   0.00  0.03  0.00  0.97  0.00  0.00  0.00  0.00  0.00
  YS02164001YS02001641    1.00   0.01  0.01  0.00  0.97  0.00  0.00  0.00  0.06  0.00
  YS02001641YS02001644    1.00   0.00  0.01  0.00  0.99  0.00  0.00  0.00  0.00  0.00
  YS02001647YS02001649    1.00   0.00  0.04  0.00  0.96  0.00  0.00  0.00  0.01  0.00
  YS02006553YS02006556    1.00   0.01  0.00  0.00  0.99  0.00  0.00  0.00  0.03  0.00
  YS02006556YS02006558    1.00   0.00  0.00  0.00  1.00  0.00  0.00  0.00  0.00  0.00
  YSB6556YSB1171          1.00   0.02  0.01  0.00  0.97  0.00  0.00  0.00  0.00  0.00
  YS02001907YS02006553    1.00   0.00  0.01  0.00  0.98  0.00  0.00  0.00  0.00  0.00
  YS02006558YS02006561    1.00   0.05  0.00  0.00  0.00  0.95  0.00  0.00  0.60  0.00
  YS02001633YS02163601    1.00   0.00  0.01  0.00  0.99  0.00  0.00  0.00  0.15  0.00
  YS02001644YS02001647    1.00   0.00  0.04  0.00  0.96  0.00  0.00  0.00  0.00  0.00
  YS02001745YS02001748    1.00   0.00  0.00  0.00  0.88  0.01  0.00  0.11  0.07  0.00
  YS02001748YS02001751    1.00   0.00  0.00  0.00  0.97  0.03  0.00  0.00  0.16  0.00
  YS02001751YS02001754    1.00   0.00  0.00  0.00  0.95  0.00  0.00  0.05  0.02  0.00
  YS02001754YS02001757    1.00   0.00  0.00  0.00  0.99  0.01  0.00  0.00  0.20  0.00
  YS02001882YS02001884    1.00   0.04  0.00  0.00  0.96  0.00  0.00  0.00  0.00  0.00
  YS02001884YS02001887    1.00   0.02  0.01  0.00  0.97  0.00  0.00  0.00  0.00  0.00
  YS02001890YS02001895    1.00   0.00  0.04  0.00  0.96  0.00  0.00  0.00  0.00  0.00
  YS02001895YS02001898    1.00   0.04  0.00  0.00  0.95  0.00  0.01  0.00  0.00  0.00
  YS02001898YS02001901    1.00   0.04  0.00  0.00  0.96  0.00  0.00  0.00  0.03  0.00
  YS02001901YS02001904    1.00   0.04  0.00  0.00  0.96  0.00  0.00  0.00  0.00  0.00
  YS02001904YS02001907    1.00   0.00  0.04  0.00  0.96  0.00  0.00  0.00  0.00  0.00
  YS02001887YS02001890    1.00   0.00  0.00  0.00  0.98  0.00  0.01  0.00  0.00  0.00
  YS02001652YS02001649    1.00   0.00  0.00  0.00  1.00  0.00  0.00  0.00  0.18  0.00
  YS02001655YS02001652    1.00   0.00  0.00  0.00  0.95  0.00  0.00  0.05  0.02  0.00
  YS02001658YS02001655    1.00   0.00  0.03  0.00  0.94  0.03  0.00  0.00  0.12  0.00
  YS02001661YS02001658    1.00   0.03  0.00  0.00  0.87  0.09  0.00  0.00  0.16  0.00
  YS02001664YS02001661    1.00   0.03  0.00  0.00  0.84  0.12  0.00  0.00  0.30  0.00
  YSB1154YSB6556          1.00   0.03  0.00  0.00  0.97  0.00  0.00  0.00  0.02  0.00
  YSB1174YSB1171          1.00   0.02  0.01  0.00  0.97  0.00  0.00  0.00  0.00  0.00
  YSB1171HS02004479       1.00   0.02  0.00  0.00  0.98  0.00  0.00  0.00  0.10  0.00
  HS02004881HS02006253    1.00   0.02  0.00  0.00  0.92  0.00  0.00  0.05  0.75  0.00
  YS02001793JiankangQianchi    1.00   0.00  0.00  0.00  0.01  0.99  0.00  0.00  0.01  0.00
  YS02001757CaochengTiaoxuchi    1.00   0.00  0.06  0.00  0.94  0.00  0.00  0.00  0.00  0.00
  WSF200WS02003060        1.00   0.00  0.06  0.00  0.94  0.00  0.00  0.00  0.03  0.00
  1                       1.00   0.00  0.00  0.00  0.00  1.00  0.00  0.00  0.18  0.00
  2                       1.00   0.87  0.00  0.00  0.00  0.13  0.00  0.00  0.01  0.00
  3                       1.00   0.04  0.00  0.00  0.00  0.96  0.00  0.00  0.00  0.00
  4                       1.00   1.00  0.00  0.00  0.00  0.00  0.00  0.00  0.00  0.00
  
  
  *************************
  Conduit Surcharge Summary
  *************************
  
  ----------------------------------------------------------------------------
                                                           Hours        Hours 
                         --------- Hours Full --------   Above Full   Capacity
  Conduit                Both Ends  Upstream  Dnstream   Normal Flow   Limited
  ----------------------------------------------------------------------------
  WS02006229WS02006228        1.46      1.52      1.46      5.89         1.46
  WS02006256WS02006235        6.06      6.06      7.83      5.50         0.01
  WS02006249WS02006248        0.01      0.01      0.01      5.82         0.01
  WS02006247WS02006245        0.01      0.01      0.01      5.84         0.01
  WS02006243WS02006242        0.01      0.01      0.39      0.01         0.01
  WS02006242WS02006240        0.01      0.01      0.82      0.01         0.01
  WS02006240WS02006239        0.01      0.01      0.41      0.01         0.01
  WS02006239WS02006238        0.90      0.90      1.01      0.01         0.01
  WS02006238WS02006235        0.98      0.98      1.11      0.01         0.01
  WS02006235WS02006234        0.60      0.60      0.92      6.09         0.01
  WS02006234WS02006232        0.83      0.83      1.26      0.01         0.01
  WS02006232WS02006231        0.01      0.01      1.26      0.01         0.01
  WS02006231WS02006230        0.01      0.01      0.01      6.05         0.01
  WS02006230WS02006229        2.25      5.80      2.25      6.13         2.25
  WS02006228WS02006109        1.49      1.73      1.49      5.98         1.49
  WS02006112WS02006115        0.01      0.01      0.97      0.01         0.01
  WS02006111WS02006112        0.01      0.01      5.83      0.01         0.01
  WS02006110WS02006113        0.01      0.01      1.59      0.01         0.01
  WS02006109WS02006110        0.57      0.57      1.73      0.59         0.01
  WS02004405WS02004406        0.01      0.01      0.01      0.87         0.01
  WS02004404WS02004405        0.01      0.01      0.01      5.99         0.01
  WS02003072WS02003073        0.01      0.01      0.01      5.81         0.01
  YS02001759YS02001757        5.53      5.53      5.64      0.01         0.01
  YS02001762YS02001759        5.50      5.50      5.53      0.01         0.01
  YS02001765YS02001762        5.47      5.47      5.50      0.01         0.01
  YS02001770YS02001767        5.43      5.43      5.43      0.01         0.51
  YS02001774YS02001770        5.40      5.40      5.49      0.01         0.01
  YS02001779YS02001774        5.14      5.14      5.49      0.01         0.01
  YS02001649YS02001757        5.51      5.51      5.64      0.01         0.01
  YS02001767YS02001765        5.43      5.43      5.47      0.01         0.01
  YS02001784YS02001785        0.01      0.01      0.01      1.11         0.01
  YS02001910YS02001907        0.01      0.01      0.22      0.01         0.01
  YS02001786YS02001788        0.01      0.01      0.01      0.59         0.01
  YS02001629YS02163301        5.40      5.40      5.42      0.01         0.01
  YS02001619YS02001622        4.71      4.71      4.84      0.01         0.03
  YS02001622YS02001625        4.84      4.84      5.31      0.01         0.01
  YS02001625YS02001629        4.75      4.75      5.31      0.01         0.01
  YS02163301YS02001633        5.42      5.42      5.47      0.01         0.01
  YS02163601YS02164001        5.46      5.46      5.51      0.01         0.01
  YS02164001YS02001641        5.46      5.46      5.48      0.01         0.02
  YS02001641YS02001644        5.48      5.48      5.48      0.01         0.63
  YS02001647YS02001649        5.27      5.27      5.51      0.01         0.01
  YS02006553YS02006556        0.01      0.01      0.36      0.01         0.01
  YS02006556YS02006558        0.02      0.02      0.49      0.01         0.01
  YS02001907YS02006553        1.13      1.13      1.35      0.01         0.01
  YS02006558YS02006561        0.01      0.01      0.01      0.94         0.01
  YS02001633YS02163601        5.45      5.45      5.51      0.01         0.01
  YS02001644YS02001647        5.27      5.27      5.48      0.01         0.01
  YS02001745YS02001748        0.01      0.01      4.32      0.01         0.01
  YS02001748YS02001751        4.46      4.46      4.73      0.01         0.01
  YS02001751YS02001754        4.73      4.73      5.18      0.01         0.01
  YS02001754YS02001757        5.26      5.26      5.64      0.01         0.01
  YS02001904YS02001907        0.01      0.01      0.40      0.01         0.01
  YS02001652YS02001649        5.29      5.29      5.51      0.01         0.01
  YS02001655YS02001652        4.77      4.77      5.24      0.01         0.01
  YS02001658YS02001655        4.35      4.35      4.77      0.01         0.01
  YS02001661YS02001658        0.06      0.06      4.35      0.01         0.01
  YS02001664YS02001661        0.01      0.01      0.70      0.01         0.01
  YS02001793JiankangQianchi        0.01      0.01      0.04      0.01         0.01
  YS02001757CaochengTiaoxuchi        4.42      4.42      5.64      0.01         0.01
  3                           0.01      0.01      0.01      0.01         0.01
  
  
  ***************
  Pumping Summary
  ***************
  
  ---------------------------------------------------------------------------------------------------------
                                                  Min       Avg       Max     Total     Power    % Time Off
                        Percent   Number of      Flow      Flow      Flow    Volume     Usage    Pump Curve
  Pump                 Utilized   Start-Ups       LPS       LPS       LPS  10^6 ltr     Kw-hr    Low   High
  ---------------------------------------------------------------------------------------------------------
  CC-Pump-1                0.00           0      0.00      0.00      0.00     0.000      0.00    0.0    0.0
  CC-Pump-2               75.61           1      0.00    198.46    200.00     4.225      5.83    0.0   13.2
  JK-Pump-1              100.00           1      0.00    201.89    300.00     4.428     87.58    0.0    0.0
  JK-Pump-2              100.00           1      0.00    201.89    300.00     4.428     87.58    0.0    0.0
  XR-Pump-1              100.00           1      0.00     95.00     95.00     2.679     33.78    0.0    0.0
  XR-Pump-2              100.00           1      0.00     95.00     95.00     2.679     33.78    0.0    0.0
  XR-Pump-3              100.00           1      0.00     95.00     95.00     2.679     33.78    0.0    0.0
  XR-Pump-4                0.00           0      0.00      0.00      0.00     0.000      0.00    0.0    0.0
  

  Analysis begun on:  Wed Jan  5 13:51:04 2022
  Analysis ended on:  Wed Jan  5 13:51:08 2022
  Total elapsed time: 00:00:04