
  EPA STORM WATER MANAGEMENT MODEL - VERSION 5.1 (Build 5.3.0.dev0)
  --------------------------------------------------------------

  WARNING 04: minimum elevation drop used for Conduit WS02004404WS02004405
  WARNING 03: negative offset ignored for Link YS02001904YS02001907
  
  *********************************************************
  NOTE: The summary statistics displayed in this report are
  based on results found at every computational time step,  
  not just on results from each reporting time step.
  *********************************************************
  
  ****************
  Analysis Options
  ****************
  Flow Units ............... LPS
  Process Models:
    Rainfall/Runoff ........ YES
    RDII ................... NO
    Snowmelt ............... NO
    Groundwater ............ NO
    Flow Routing ........... YES
    Ponding Allowed ........ NO
    Water Quality .......... NO
  Infiltration Method ...... HORTON
  Flow Routing Method ...... DYNWAVE
  Surcharge Method ......... EXTRAN
  Starting Date ............ 08/28/2015 08:00:00
  Ending Date .............. 08/28/2015 15:50:00
  Antecedent Dry Days ...... 8.0
  Report Time Step ......... 00:01:00
  Wet Time Step ............ 00:01:00
  Dry Time Step ............ 00:01:00
  Routing Time Step ........ 5.00 sec
  Variable Time Step ....... YES
  Maximum Trials ........... 8
  Number of Threads ........ 4
  Head Tolerance ........... 0.001500 m
  
  
  **************************        Volume         Depth
  Runoff Quantity Continuity     hectare-m            mm
  **************************     ---------       -------
  Total Precipitation ......         3.868         8.469
  Evaporation Loss .........         0.000         0.000
  Infiltration Loss ........         0.985         2.157
  Surface Runoff ...........         1.916         4.194
  Final Storage ............         0.968         2.119
  Continuity Error (%) .....        -0.017
  
  
  **************************        Volume        Volume
  Flow Routing Continuity        hectare-m      10^6 ltr
  **************************     ---------     ---------
  Dry Weather Inflow .......         0.616         6.165
  Wet Weather Inflow .......         1.915        19.149
  Groundwater Inflow .......         0.000         0.000
  RDII Inflow ..............         0.000         0.000
  External Inflow ..........         0.102         1.024
  External Outflow .........         1.412        14.118
  Flooding Loss ............         0.702         7.016
  Evaporation Loss .........         0.000         0.000
  Exfiltration Loss ........         0.000         0.000
  Initial Stored Volume ....         0.076         0.761
  Final Stored Volume ......         0.651         6.511
  Continuity Error (%) .....        -2.015
  
  
  *************************
  Highest Continuity Errors
  *************************
  Node YS02001774 (40.43%)
  Node HS02004842 (20.89%)
  Node YS02001884 (13.40%)
  Node JK-storage (-9.68%)
  Node YSB1171 (4.66%)
  
  
  ***************************
  Time-Step Critical Elements
  ***************************
  Link WS02006252WS02006251 (42.14%)
  Link 3 (38.46%)
  Link WS02006280WS02006229 (9.18%)
  Link WS02006238WS02006235 (2.92%)
  Link YS02006556YS02006558 (1.77%)
  
  
  ********************************
  Highest Flow Instability Indexes
  ********************************
  Link YS02001619YS02001622 (34)
  Link YS02001629YS02163301 (33)
  Link YS02163601YS02164001 (32)
  Link YS02163301YS02001633 (31)
  Link WS02006113WS02006111 (31)
  
  
  *************************
  Routing Time Step Summary
  *************************
  Minimum Time Step           :     0.50 sec
  Average Time Step           :     1.30 sec
  Maximum Time Step           :     5.00 sec
  Percent in Steady State     :    -0.00
  Average Iterations per Step :     4.36
  Percent Not Converging      :    23.20
  
  
  ***************************
  Subcatchment Runoff Summary
  ***************************
  
  ------------------------------------------------------------------------------------------------------------------------------
                            Total      Total      Total      Total     Imperv       Perv      Total       Total     Peak  Runoff
                           Precip      Runon       Evap      Infil     Runoff     Runoff     Runoff      Runoff   Runoff   Coeff
  Subcatchment                 mm         mm         mm         mm         mm         mm         mm    10^6 ltr      LPS
  ------------------------------------------------------------------------------------------------------------------------------
  sub0                       8.47       0.00       0.00       0.59       6.61       0.00       6.61        0.01     1.03   0.781
  sub1                       8.47       0.00       0.00       0.93       6.28       0.00       6.28        0.04     7.43   0.741
  sub2                       8.47       0.00       0.00       3.13       4.43       0.00       4.43        0.04     7.08   0.523
  sub3                       8.47       0.00       0.00       3.13       4.39       0.00       4.39        0.10    15.91   0.518
  sub4                       8.47       0.00       0.00       0.93       6.13       0.00       6.13        0.13    19.23   0.724
  sub5                       8.47       0.00       0.00       0.59       6.56       0.00       6.56        0.07    13.22   0.775
  sub7                       8.47       0.00       0.00       0.76       6.45       0.00       6.45        0.02     4.04   0.762
  sub8                       8.47       0.00       0.00       0.76       6.44       0.00       6.44        0.04     7.54   0.761
  sub9                       8.47       0.00       0.00       0.76       6.44       0.00       6.44        0.03     5.65   0.760
  sub10                      8.47       0.00       0.00       0.68       6.50       0.00       6.50        0.07    12.87   0.767
  sub11                      8.47       0.00       0.00       0.68       6.52       0.00       6.52        0.08    13.93   0.769
  sub12                      8.47       0.00       0.00       1.10       6.18       0.00       6.18        0.05    10.23   0.730
  sub14                      8.47       0.00       0.00       0.76       6.44       0.00       6.44        0.06    11.15   0.760
  sub15                      8.47       0.00       0.00       2.54       4.95       0.00       4.95        0.09    15.40   0.584
  sub16                      8.47       0.00       0.00       2.79       4.76       0.00       4.76        0.05     9.37   0.561
  sub17                      8.47       0.00       0.00       2.71       4.82       0.00       4.82        0.04     7.75   0.570
  sub22                      8.47       0.00       0.00       3.64       4.04       0.00       4.04        0.26    47.08   0.477
  sub23                      8.47       0.00       0.00       3.13       4.46       0.00       4.46        0.21    39.46   0.527
  sub60                      8.47       0.00       0.00       1.02       4.75       0.00       4.75        1.44   149.28   0.561
  sub61                      8.47       0.00       0.00       1.44       4.95       0.00       4.95        1.53   180.35   0.585
  sub62                      8.47       0.00       0.00       0.68       5.35       0.00       5.35        1.64   187.08   0.631
  sub63                      8.47       0.00       0.00       2.46       4.37       0.00       4.37        1.32   164.01   0.516
  sub64                      8.47       0.00       0.00       1.27       4.55       0.00       4.55        1.38   141.99   0.537
  sub65                      8.47       0.00       0.00       1.10       4.62       0.00       4.62        1.42   144.28   0.545
  sub66                      8.47       0.00       0.00       2.46       3.94       0.00       3.94        1.21   129.20   0.465
  sub67                      8.47       0.00       0.00       0.68       5.75       0.00       5.75        1.78   226.25   0.679
  sub68                      8.47       0.00       0.00       1.19       5.24       0.00       5.24        1.61   196.27   0.618
  sub69                      8.47       0.00       0.00       1.27       5.53       0.00       5.53        1.29   176.57   0.653
  sub70                      8.47       5.64       0.00       4.80       7.11       0.00       7.11        1.63   167.69   0.504
  sub71                      8.47       0.00       0.00       0.68       5.16       0.00       5.16        1.22   132.38   0.610
  sub72                      8.47       0.00       0.00       0.59       3.87       0.00       3.87        0.79    64.98   0.457
  sub73                      8.47       6.92       0.00       5.23       7.51       0.00       7.51        1.76   149.38   0.488
  sub74                      8.47       0.00       0.00       6.35       1.66       0.00       1.66        0.66    93.55   0.196
  
  
  ******************
  Node Depth Summary
  ******************
  
  ---------------------------------------------------------------------------------
                                 Average  Maximum  Maximum  Time of Max    Reported
                                   Depth    Depth      HGL   Occurrence   Max Depth
  Node                 Type       Meters   Meters   Meters  days hr:min      Meters
  ---------------------------------------------------------------------------------
  WS02001211           JUNCTION     0.66     0.72     5.56     0  03:09        0.72
  WS02001212           JUNCTION     0.38     0.44     5.51     0  03:08        0.44
  WS02001213           JUNCTION     0.60     0.70     5.46     0  03:08        0.70
  WS02003069           JUNCTION     0.42     0.54     5.12     0  03:07        0.54
  WS02003072           JUNCTION     0.48     0.60     4.97     0  03:07        0.60
  WS02003073           JUNCTION     0.29     0.37     4.43     0  03:08        0.37
  WS02003060           JUNCTION     0.38     0.48     5.41     0  03:06        0.48
  WS02003066           JUNCTION     0.21     0.29     5.85     0  03:05        0.29
  WS02003059           JUNCTION     0.66     0.76     5.44     0  03:07        0.76
  WS02003067           JUNCTION     0.54     0.69     6.01     0  03:04        0.69
  WS02004401           JUNCTION     0.64     0.83     6.83     0  03:01        0.83
  WS02004402           JUNCTION     0.67     0.86     6.82     0  03:01        0.86
  WS02004403           JUNCTION     0.69     0.87     6.80     0  03:01        0.87
  WS02004404           JUNCTION     0.77     0.95     6.80     0  03:01        0.95
  WS02004406           JUNCTION     0.77     0.94     6.77     0  03:02        0.94
  WS02004409           JUNCTION     0.46     0.65     6.42     0  03:04        0.65
  WS02004410           JUNCTION     0.47     0.66     6.38     0  03:04        0.66
  WS02004411           JUNCTION     0.49     0.67     6.35     0  03:05        0.67
  WS02004412           JUNCTION     0.51     0.68     6.32     0  03:05        0.68
  WS02004413           JUNCTION     0.66     0.84     6.31     0  03:05        0.84
  WS02004405           JUNCTION     0.76     0.94     6.79     0  03:01        0.94
  WS02006109           JUNCTION     0.72     0.94     7.55     0  03:02        0.94
  WS02006110           JUNCTION     0.71     0.90     7.48     0  03:02        0.90
  WS02006111           JUNCTION     0.20     0.28     6.99     0  02:58        0.28
  WS02006112           JUNCTION     0.81     1.05     6.93     0  03:02        1.05
  WS02006113           JUNCTION     0.32     0.44     7.33     0  02:58        0.44
  WS02006115           JUNCTION     0.53     0.73     6.87     0  03:02        0.73
  WS02006116           JUNCTION     0.61     0.81     6.85     0  03:01        0.81
  WS02006230           JUNCTION     0.67     0.96     7.71     0  03:02        0.96
  WS02006231           JUNCTION     0.41     0.63     7.76     0  03:02        0.63
  WS02006232           JUNCTION     0.54     0.76     7.80     0  03:03        0.76
  WS02006234           JUNCTION     0.44     0.68     7.84     0  03:03        0.68
  WS02006235           JUNCTION     0.47     0.71     7.87     0  03:03        0.71
  WS02006238           JUNCTION     0.50     0.73     7.88     0  03:03        0.73
  WS02006240           JUNCTION     0.39     0.63     7.92     0  03:03        0.63
  WS02006242           JUNCTION     0.43     0.68     7.95     0  03:03        0.68
  WS02006243           JUNCTION     0.31     0.55     7.97     0  03:04        0.55
  WS02006245           JUNCTION     0.29     0.52     8.00     0  03:03        0.52
  WS02006247           JUNCTION     0.31     0.53     8.03     0  03:03        0.53
  WS02006248           JUNCTION     0.26     0.46     8.05     0  03:03        0.46
  WS02006249           JUNCTION     0.30     0.48     8.08     0  03:02        0.48
  WS02006239           JUNCTION     0.44     0.69     7.90     0  03:03        0.69
  WS02006251           JUNCTION     0.28     0.46     8.13     0  03:02        0.46
  WS02006252           JUNCTION     0.23     0.35     8.59     0  02:40        0.35
  WS02006253           JUNCTION     0.31     0.48     8.13     0  03:02        0.48
  WS02006256           JUNCTION     0.98     2.35     9.28     0  00:00        1.19
  WS02004138           JUNCTION     0.15     0.17     7.42     0  02:43        0.17
  WS02004407           JUNCTION     0.21     0.29     6.60     0  03:02        0.29
  WS02006228           JUNCTION     0.71     0.97     7.62     0  03:02        0.97
  WS02006229           JUNCTION     0.69     0.96     7.65     0  03:02        0.96
  WS02006280           JUNCTION     0.08     0.14     8.41     0  02:27        0.14
  WS02006284           JUNCTION     0.38     0.48     8.88     0  02:27        0.48
  WS02006287           JUNCTION     0.12     0.21     9.16     0  02:27        0.21
  WSF200               JUNCTION     0.20     0.30     5.53     0  03:04        0.30
  HS02004901           JUNCTION     0.14     0.22    10.04     0  02:25        0.22
  HS02004881           JUNCTION     0.01     0.02     9.05     0  02:26        0.02
  HS02004876           JUNCTION     0.06     0.10     9.13     0  02:25        0.10
  HS02004870           JUNCTION     0.02     0.04     9.33     0  02:26        0.04
  HS02004862           JUNCTION     0.02     0.05     9.43     0  02:27        0.05
  HS02004856           JUNCTION     0.08     0.11     9.53     0  02:26        0.11
  HS02004852           JUNCTION     0.01     0.03     9.54     0  02:27        0.03
  HS02004848           JUNCTION     0.01     0.03     9.63     0  02:26        0.03
  HS02004842           JUNCTION     0.33     0.36     9.63     0  02:26        0.36
  HS02004837           JUNCTION     0.03     0.05     9.63     0  02:26        0.05
  HS02004830           JUNCTION     0.04     0.06     9.53     0  02:26        0.06
  HS02004824           JUNCTION     0.03     0.04     9.45     0  02:27        0.04
  HS02004817           JUNCTION     0.44     0.53     9.37     0  02:27        0.53
  HS02004807           JUNCTION     0.13     0.20     9.37     0  02:27        0.20
  HS02004802           JUNCTION     0.17     0.24     9.37     0  02:27        0.24
  HS02004799           JUNCTION     0.14     0.25     9.46     0  02:25        0.25
  HS02004792           JUNCTION     0.04     0.09     9.62     0  02:25        0.09
  HS02004788           JUNCTION     0.03     0.07     9.97     0  02:26        0.07
  HS02004785           JUNCTION     0.06     0.13    10.03     0  02:25        0.13
  HS02004777           JUNCTION     0.16     0.24    10.04     0  02:25        0.24
  HS02004770           JUNCTION     0.13     0.21    10.04     0  02:25        0.21
  HS02004480           JUNCTION     0.10     0.19     9.43     0  02:26        0.19
  HS02004479           JUNCTION     0.14     0.23     9.43     0  02:25        0.23
  HS02004478           JUNCTION     0.07     0.12     9.35     0  02:26        0.12
  YS02001745           JUNCTION     0.52     0.85     8.37     0  03:50        0.85
  YS02001748           JUNCTION     0.87     1.71     8.79     0  03:07        1.29
  YS02001751           JUNCTION     1.04     2.01     8.89     0  02:52        1.50
  YS02001754           JUNCTION     1.28     2.00     8.61     0  02:52        1.79
  YS02001762           JUNCTION     1.48     2.02     8.42     0  03:43        2.01
  YS02001765           JUNCTION     1.43     1.97     8.42     0  03:43        1.96
  YS02001767           JUNCTION     1.40     1.92     8.41     0  03:43        1.91
  YS02001770           JUNCTION     1.39     1.91     8.40     0  03:43        1.90
  YS02001774           JUNCTION     1.46     1.97     8.39     0  04:02        1.96
  YS02001779           JUNCTION     1.22     1.68     8.37     0  02:53        1.68
  YS02001882           JUNCTION     0.41     0.63     7.34     0  03:02        0.63
  YS02001884           JUNCTION     0.50     0.73     7.34     0  03:00        0.72
  YS02001759           JUNCTION     1.51     2.06     8.42     0  03:43        2.05
  YS02001887           JUNCTION     0.58     0.80     7.34     0  03:00        0.80
  YS02001890           JUNCTION     0.61     0.83     7.34     0  03:02        0.83
  YS02001898           JUNCTION     0.38     0.59     7.32     0  03:01        0.59
  YS02001901           JUNCTION     0.49     0.72     7.33     0  03:01        0.71
  YS02001904           JUNCTION     0.47     0.69     7.32     0  03:01        0.68
  YS02001907           JUNCTION     0.80     1.04     7.33     0  02:53        1.03
  YS02001910           JUNCTION     0.59     0.82     7.33     0  03:01        0.81
  YS02001915           JUNCTION     0.39     0.60     7.32     0  03:01        0.60
  YS02001918           JUNCTION     0.12     0.25     7.32     0  02:59        0.25
  YS02001619           JUNCTION     1.01     1.61     8.54     0  03:02        1.46
  YS02001629           JUNCTION     1.35     1.85     8.40     0  03:08        1.82
  YS02001641           JUNCTION     1.45     1.94     8.38     0  03:31        1.92
  YS02001644           JUNCTION     1.46     1.92     8.35     0  03:26        1.92
  YS02001652           JUNCTION     1.30     2.16     8.76     0  02:50        1.85
  YS02001655           JUNCTION     1.07     2.20     9.05     0  02:50        1.82
  YS02001920           JUNCTION     0.22     0.32     7.33     0  03:00        0.32
  YS02001923           JUNCTION     0.09     0.12     7.38     0  03:02        0.12
  YS02001926           JUNCTION     0.18     0.23     7.67     0  03:01        0.23
  YS02001929           JUNCTION     0.09     0.12     7.81     0  03:01        0.12
  YS02001658           JUNCTION     0.82     2.30     9.44     0  03:00        1.85
  YS02001661           JUNCTION     0.62     1.91     9.32     0  03:34        1.27
  YS02001664           JUNCTION     0.27     0.57     8.49     0  03:38        0.56
  YS02001622           JUNCTION     1.03     1.62     8.52     0  03:02        1.48
  YS02001633           JUNCTION     1.44     1.96     8.41     0  03:13        1.92
  YS02001649           JUNCTION     1.49     2.05     8.44     0  03:32        2.05
  YS02001757           JUNCTION     1.61     2.16     8.42     0  03:51        2.15
  YS02001895           JUNCTION     0.37     0.58     7.33     0  03:01        0.58
  YS02001625           JUNCTION     1.31     1.78     8.38     0  03:04        1.78
  YS02163301           JUNCTION     1.38     1.90     8.42     0  03:13        1.86
  YS02163601           JUNCTION     1.49     1.99     8.39     0  03:31        1.97
  YS02164001           JUNCTION     1.43     1.92     8.38     0  03:31        1.90
  YS02001647           JUNCTION     1.29     1.80     8.41     0  03:49        1.78
  YSB1154              JUNCTION     0.27     0.38     9.43     0  02:26        0.38
  YSB6556              JUNCTION     0.17     0.26     9.43     0  02:26        0.26
  YSB1174              JUNCTION     0.23     0.32     9.43     0  02:26        0.32
  YSB1171              JUNCTION     0.42     0.53     9.43     0  02:25        0.53
  YS02006553           JUNCTION     0.80     1.05     7.33     0  03:11        1.03
  YS02006561           JUNCTION     0.20     0.43     7.09     0  03:03        0.39
  YS02006556           JUNCTION     0.77     1.01     7.32     0  03:01        1.00
  YS02006558           JUNCTION     0.81     1.06     7.32     0  03:01        1.06
  YS02001783           JUNCTION     0.45     1.36     7.50     0  03:03        1.30
  YS02001784           JUNCTION     0.49     1.36     7.43     0  03:03        1.09
  YS02001786           JUNCTION     0.47     1.53     7.56     0  03:03        0.89
  YS02001788           JUNCTION     0.44     1.70     7.68     0  03:03        0.86
  YS02001790           JUNCTION     0.63     1.96     7.60     0  03:00        1.11
  YS02001791           JUNCTION     0.67     1.48     6.95     0  03:03        1.20
  YS02001793           JUNCTION     1.02     2.67     7.50     0  02:57        1.79
  WS02004139           JUNCTION     0.60     0.66     5.57     0  03:10        0.66
  WSC                  OUTFALL      0.29     0.37     1.04     0  03:08        0.37
  3                    OUTFALL      0.10     0.23     6.23     0  00:00        0.19
  4                    OUTFALL      0.00     0.00     7.00     0  00:00        0.00
  5                    OUTFALL      0.00     0.00     5.00     0  00:00        0.00
  JK-storage           STORAGE      3.65     5.80     6.60     0  03:02        5.80
  CC-storage           STORAGE      0.84     1.37     8.37     0  05:04        1.37
  XR-storage           STORAGE      7.42     7.72     5.72     0  02:14        7.72
  
  
  *******************
  Node Inflow Summary
  *******************
  
  -------------------------------------------------------------------------------------------------
                                  Maximum  Maximum                  Lateral       Total        Flow
                                  Lateral    Total  Time of Max      Inflow      Inflow     Balance
                                   Inflow   Inflow   Occurrence      Volume      Volume       Error
  Node                 Type           LPS      LPS  days hr:min    10^6 ltr    10^6 ltr     Percent
  -------------------------------------------------------------------------------------------------
  WS02001211           JUNCTION      7.35   293.23     0  03:23       0.207        6.28       0.484
  WS02001212           JUNCTION      0.00   293.90     0  03:22           0        6.25       0.252
  WS02001213           JUNCTION      0.00   294.49     0  03:22           0        6.23       0.278
  WS02003069           JUNCTION      0.32   820.24     0  03:07     0.00902        11.4       0.133
  WS02003072           JUNCTION      0.00   820.22     0  03:07           0        11.4       0.183
  WS02003073           JUNCTION      1.82   822.03     0  03:08      0.0514        11.4       0.187
  WS02003060           JUNCTION     16.53   819.95     0  03:06       0.466        11.4       0.127
  WS02003066           JUNCTION      0.00   511.24     0  03:05           0        4.78       0.030
  WS02003059           JUNCTION      0.00   295.54     0  03:21           0        6.22       0.475
  WS02003067           JUNCTION      0.00   511.24     0  03:05           0        4.79       0.090
  WS02004401           JUNCTION      0.00   511.94     0  02:59           0        4.89       0.216
  WS02004402           JUNCTION      0.00   511.79     0  03:01           0        4.88       0.220
  WS02004403           JUNCTION      0.00   511.66     0  03:01           0        4.87       0.213
  WS02004404           JUNCTION      0.16   511.74     0  03:01     0.00457        4.87       0.175
  WS02004406           JUNCTION      0.00   511.85     0  03:01           0        4.85       0.435
  WS02004409           JUNCTION      0.00   511.65     0  03:02           0        4.82       0.063
  WS02004410           JUNCTION      0.00   511.50     0  03:02           0        4.82       0.099
  WS02004411           JUNCTION      0.00   511.38     0  03:03           0        4.81       0.124
  WS02004412           JUNCTION      0.00   511.34     0  03:03           0        4.81       0.164
  WS02004413           JUNCTION      0.00   511.28     0  03:05           0         4.8       0.287
  WS02004405           JUNCTION      0.04   511.83     0  03:01     0.00107        4.86       0.268
  WS02006109           JUNCTION      1.23   505.88     0  03:02      0.0347         4.9       0.228
  WS02006110           JUNCTION      0.00   505.88     0  03:02           0        4.89       0.167
  WS02006111           JUNCTION      0.00   523.99     0  02:58           0        4.88       0.016
  WS02006112           JUNCTION      7.75   516.09     0  02:58      0.0414        4.92       0.322
  WS02006113           JUNCTION      0.00   506.14     0  03:02           0        4.88       0.038
  WS02006115           JUNCTION      0.00   523.51     0  03:02           0        4.91       0.142
  WS02006116           JUNCTION      0.00   512.64     0  02:58           0         4.9       0.161
  WS02006230           JUNCTION     10.28   341.75     0  03:13        0.29        3.58       0.206
  WS02006231           JUNCTION      0.00   329.82     0  03:13           0        3.28      -0.093
  WS02006232           JUNCTION      0.00   329.74     0  03:13           0        3.29       0.131
  WS02006234           JUNCTION      0.00   328.65     0  03:12           0        3.29      -0.084
  WS02006235           JUNCTION      0.00   328.07     0  03:12           0        3.32       0.111
  WS02006238           JUNCTION      0.00   238.20     0  03:09           0        1.98       0.006
  WS02006240           JUNCTION      0.00   235.67     0  03:08           0        1.95       0.015
  WS02006242           JUNCTION      0.00   234.56     0  03:03           0        1.94       0.031
  WS02006243           JUNCTION      0.00   234.79     0  03:02           0        1.93      -0.130
  WS02006245           JUNCTION      0.00   234.96     0  03:02           0        1.93       0.073
  WS02006247           JUNCTION      0.00   235.13     0  03:02           0        1.93       0.006
  WS02006248           JUNCTION      0.00   235.29     0  03:01           0        1.93      -0.052
  WS02006249           JUNCTION      0.00   235.84     0  02:44           0        1.94       0.096
  WS02006239           JUNCTION      0.00   237.15     0  03:08           0        1.96       0.007
  WS02006251           JUNCTION      0.08   236.85     0  02:44     0.00217        1.94      -0.025
  WS02006252           JUNCTION      0.00   200.00     0  02:40           0         1.7       0.029
  WS02006253           JUNCTION      1.03    41.73     0  02:26     0.00535       0.235      -0.099
  WS02006256           JUNCTION      0.00   600.00     0  00:00           0        4.05       0.024
  WS02004138           JUNCTION      0.00   285.00     0  02:40           0         6.1       0.063
  WS02004407           JUNCTION      0.00   511.72     0  03:02           0        4.82       0.029
  WS02006228           JUNCTION      0.00   504.65     0  03:02           0        4.88       0.139
  WS02006229           JUNCTION      0.00   504.69     0  03:01           0        4.88       0.112
  WS02006280           JUNCTION      0.00   204.81     0  02:27           0        1.31       0.005
  WS02006284           JUNCTION      0.10   204.80     0  02:27      0.0027        1.31       0.087
  WS02006287           JUNCTION      0.00   204.70     0  02:27           0        1.31       0.053
  WSF200               JUNCTION      0.00   511.25     0  03:05           0        4.78       0.015
  HS02004901           JUNCTION      9.37     9.37     0  02:23      0.0498      0.0501       3.647
  HS02004881           JUNCTION      4.04    40.75     0  02:26      0.0217        0.23       0.130
  HS02004876           JUNCTION      7.43    36.75     0  02:26      0.0417       0.209       0.259
  HS02004870           JUNCTION      7.54    29.42     0  02:26      0.0411       0.167       0.066
  HS02004862           JUNCTION      7.28    22.06     0  02:26      0.0469       0.126       0.137
  HS02004856           JUNCTION      5.65    14.84     0  02:26       0.031      0.0805       1.827
  HS02004852           JUNCTION      0.00     9.33     0  02:26           0      0.0496       0.110
  HS02004848           JUNCTION     15.91    15.91     0  02:26      0.0988      0.0988       0.048
  HS02004842           JUNCTION      0.00     6.79     0  02:52           0      0.0622      26.413
  HS02004837           JUNCTION     19.22    25.66     0  02:25       0.251         0.3       0.273
  HS02004830           JUNCTION      0.15    25.80     0  02:26     0.00423        0.29       0.426
  HS02004824           JUNCTION     19.28    44.91     0  02:27       0.129       0.418       0.129
  HS02004817           JUNCTION      0.60    45.51     0  02:27      0.0169       0.435       3.987
  HS02004807           JUNCTION     13.93    58.94     0  02:27      0.0757       0.494       0.884
  HS02004802           JUNCTION      0.00    59.00     0  02:28           0       0.491       0.816
  HS02004799           JUNCTION     11.15   123.20     0  02:25      0.0613       0.713       0.360
  HS02004792           JUNCTION     47.36   112.13     0  02:24       0.263       0.652       0.064
  HS02004788           JUNCTION     17.07    65.26     0  02:25       0.132        0.39       0.100
  HS02004785           JUNCTION      0.15    48.39     0  02:25     0.00423       0.259       0.188
  HS02004777           JUNCTION      0.03    48.40     0  02:24    0.000846        0.26       2.037
  HS02004770           JUNCTION     39.46    48.64     0  02:23       0.213       0.261       1.203
  HS02004480           JUNCTION      0.00   146.07     0  02:25           0       0.837       0.127
  HS02004479           JUNCTION      0.00    23.09     0  02:27           0       0.137       0.537
  HS02004478           JUNCTION      0.00   204.69     0  02:26           0        1.31       0.032
  YS02001745           JUNCTION    149.28   415.50     0  03:06        1.44        1.47       0.782
  YS02001748           JUNCTION      0.04   535.02     0  03:06     0.00127        1.46       1.530
  YS02001751           JUNCTION      0.01   298.71     0  02:52     0.00031        1.41       1.701
  YS02001754           JUNCTION      0.26   198.39     0  02:49     0.00733        1.39       1.810
  YS02001762           JUNCTION      0.00   200.10     0  03:01           0        1.56       1.371
  YS02001765           JUNCTION      0.00   198.17     0  03:01           0        1.56       1.589
  YS02001767           JUNCTION      0.54   196.55     0  03:01      0.0151        1.58       2.319
  YS02001770           JUNCTION    187.24   191.72     0  03:01        1.65        1.65       1.960
  YS02001774           JUNCTION      0.00    32.98     0  01:57           0      0.0623      67.876
  YS02001779           JUNCTION      0.01    29.24     0  02:43    0.000141      0.0308      97.704
  YS02001882           JUNCTION      0.00    12.90     0  03:15           0      0.0138      16.494
  YS02001884           JUNCTION      0.00    16.13     0  02:52           0      0.0407      15.478
  YS02001759           JUNCTION    180.39   381.72     0  03:01        1.53        3.05       0.755
  YS02001887           JUNCTION    226.70   238.95     0  02:56        1.79        1.81       0.433
  YS02001890           JUNCTION      0.00   235.24     0  03:00           0        1.77       0.482
  YS02001898           JUNCTION      0.00   249.16     0  03:03           0        1.76       0.154
  YS02001901           JUNCTION      0.00   245.44     0  03:04           0        1.76       0.352
  YS02001904           JUNCTION      0.00   242.83     0  03:03           0        1.75       0.325
  YS02001907           JUNCTION      0.00   449.98     0  03:04           0        3.82       0.603
  YS02001910           JUNCTION      0.00   220.36     0  03:01           0        2.08       0.527
  YS02001915           JUNCTION    132.40   213.60     0  03:00        1.22        2.08       0.254
  YS02001918           JUNCTION      0.00    74.48     0  03:00           0       0.866       0.175
  YS02001619           JUNCTION    129.20   129.20     0  03:01        1.21        1.21       0.990
  YS02001629           JUNCTION      0.00   213.32     0  02:48           0        1.13       2.600
  YS02001641           JUNCTION      0.00   312.62     0  03:00           0        2.44       0.872
  YS02001644           JUNCTION    142.03   484.16     0  03:55        1.38        5.46       0.478
  YS02001652           JUNCTION      0.00   247.11     0  02:58           0        1.27       1.879
  YS02001655           JUNCTION      0.15   373.88     0  02:50     0.00434        1.29       1.899
  YS02001920           JUNCTION      2.87    67.64     0  03:02      0.0809       0.868       0.286
  YS02001923           JUNCTION      0.04    64.78     0  03:02     0.00106       0.788       0.052
  YS02001926           JUNCTION      0.05    64.97     0  03:01     0.00147        0.79       0.356
  YS02001929           JUNCTION     64.98    64.98     0  03:01       0.788       0.788       0.052
  YS02001658           JUNCTION      0.00   576.82     0  03:00           0        1.37       1.547
  YS02001661           JUNCTION      0.00   493.46     0  03:32           0        1.77       0.363
  YS02001664           JUNCTION    164.01   390.18     0  03:32        1.32        1.72       0.376
  YS02001622           JUNCTION      0.00   162.75     0  02:50           0         1.2       2.676
  YS02001633           JUNCTION    144.48   312.66     0  02:59        1.43         2.5       1.303
  YS02001649           JUNCTION      0.00   631.39     0  02:58           0        4.14       0.904
  YS02001757           JUNCTION      0.00  1101.27     0  03:02           0        6.86       1.361
  YS02001895           JUNCTION      0.00   238.54     0  03:03           0        1.76       0.241
  YS02001625           JUNCTION      0.00   213.66     0  02:48           0        1.16       3.442
  YS02163301           JUNCTION      0.00   170.24     0  02:59           0         1.1       2.242
  YS02163601           JUNCTION      0.11   312.77     0  02:59      0.0031        2.47       1.240
  YS02164001           JUNCTION      0.00   312.75     0  02:59           0        2.45       0.830
  YS02001647           JUNCTION      0.00   455.15     0  03:00           0         3.4       0.841
  YSB1154              JUNCTION     13.22    13.22     0  02:24      0.0743      0.0752       1.964
  YSB6556              JUNCTION      0.00    13.14     0  02:25           0      0.0759       1.671
  YSB1174              JUNCTION     10.23    10.23     0  02:22       0.054      0.0546       2.413
  YSB1171              JUNCTION      0.00    23.08     0  02:25           0       0.136       4.884
  YS02006553           JUNCTION      0.00   444.04     0  03:04           0        3.81       0.383
  YS02006561           JUNCTION      0.00   666.93     0  03:02           0        5.39       0.005
  YS02006556           JUNCTION      0.00   443.49     0  03:04           0        3.81       0.283
  YS02006558           JUNCTION    197.15   648.98     0  03:02        1.63        5.42       0.096
  YS02001783           JUNCTION      0.00   658.76     0  03:04           0        5.39       0.131
  YS02001784           JUNCTION      1.06   659.08     0  03:04      0.0299        5.42       0.200
  YS02001786           JUNCTION      0.06   659.35     0  03:04     0.00159        5.41       0.247
  YS02001788           JUNCTION      0.07   658.37     0  03:04       0.002         5.4       0.256
  YS02001790           JUNCTION      0.15   659.96     0  03:04     0.00437        5.39       0.313
  YS02001791           JUNCTION      0.00   660.09     0  03:04           0        5.37       0.275
  YS02001793           JUNCTION      0.00   711.26     0  02:58           0        5.35       0.301
  WS02004139           JUNCTION      0.32   285.32     0  02:43     0.00905         6.1       0.517
  WSC                  OUTFALL       0.00   822.03     0  03:08           0        11.4       0.000
  3                    OUTFALL       0.00   597.65     0  00:00           0        2.69       0.000
  4                    OUTFALL       0.00     0.00     0  00:00           0           0       0.000 ltr
  5                    OUTFALL       0.00     0.00     0  00:00           0           0       0.000 ltr
  JK-storage           STORAGE       0.00   975.53     0  02:57           0        5.49      -8.823
  CC-storage           STORAGE       0.00  1102.06     0  03:02           0        5.58       1.098
  XR-storage           STORAGE     442.93   442.93     0  03:01        8.07        8.67      -0.001
  
  
  **********************
  Node Surcharge Summary
  **********************
  
  Surcharging occurs when water rises above the top of the highest conduit.
  ---------------------------------------------------------------------
                                               Max. Height   Min. Depth
                                   Hours       Above Crown    Below Rim
  Node                 Type      Surcharged         Meters       Meters
  ---------------------------------------------------------------------
  WS02006109           JUNCTION        0.85          0.116        1.704
  WS02006112           JUNCTION        0.35          0.049        1.631
  WS02006232           JUNCTION        0.57          0.057        1.423
  WS02006238           JUNCTION        0.28          0.015        1.415
  WS02006256           JUNCTION        0.01          1.050        0.000
  WS02006228           JUNCTION        0.82          0.136        2.064
  YS02001748           JUNCTION        4.56          0.631        0.559
  YS02001751           JUNCTION        4.90          1.011        0.189
  YS02001754           JUNCTION        5.26          0.952        0.198
  YS02001762           JUNCTION        5.51          1.021        0.129
  YS02001765           JUNCTION        5.48          0.967        0.133
  YS02001767           JUNCTION        5.45          0.923        0.107
  YS02001770           JUNCTION        5.43          0.875        0.045
  YS02001774           JUNCTION        5.49          0.966        0.084
  YS02001779           JUNCTION        5.23          0.680        0.000
  YS02001759           JUNCTION        5.54          1.059        0.151
  YS02001907           JUNCTION        0.27          0.032        0.918
  YS02001619           JUNCTION        4.83          0.610        0.000
  YS02001629           JUNCTION        4.88          0.470        0.000
  YS02001641           JUNCTION        5.48          0.942        0.158
  YS02001644           JUNCTION        5.49          0.920        0.000
  YS02001652           JUNCTION        5.32          1.130        0.000
  YS02001655           JUNCTION        4.94          1.200        0.000
  YS02001658           JUNCTION        4.59          1.300        0.000
  YS02001661           JUNCTION        0.10          0.842        0.548
  YS02001622           JUNCTION        4.95          0.620        0.000
  YS02001633           JUNCTION        5.47          0.938        0.122
  YS02001649           JUNCTION        5.52          1.050        0.000
  YS02001757           JUNCTION        5.64          1.159        0.051
  YS02001625           JUNCTION        5.37          0.780        0.000
  YS02163301           JUNCTION        5.44          0.899        0.131
  YS02163601           JUNCTION        5.52          0.992        0.088
  YS02164001           JUNCTION        5.47          0.924        0.176
  YS02001647           JUNCTION        5.35          0.800        0.100
  YS02006553           JUNCTION        0.40          0.048        1.142
  YS02001783           JUNCTION        0.06          0.563        1.037
  YS02001784           JUNCTION        0.17          0.560        0.930
  YS02001786           JUNCTION        0.08          0.729        0.701
  YS02001788           JUNCTION        0.04          0.901        0.579
  YS02001790           JUNCTION        4.18          1.157        0.000
  YS02001791           JUNCTION        4.34          0.684        1.236
  YS02001793           JUNCTION        4.62          1.668        0.932
  
  
  *********************
  Node Flooding Summary
  *********************
  
  Flooding refers to all water that overflows a node, whether it ponds or not.
  --------------------------------------------------------------------------
                                                             Total   Maximum
                                 Maximum   Time of Max       Flood    Ponded
                        Hours       Rate    Occurrence      Volume     Depth
  Node                 Flooded       LPS   days hr:min    10^6 ltr    Meters
  --------------------------------------------------------------------------
  WS02006256              0.01    406.11      0  00:00       0.001     0.000
  YS02001779              0.95     10.10      0  03:45       0.010     0.000
  YS02001619              0.01     29.68      0  03:04       0.000     0.000
  YS02001629              0.01     31.99      0  03:08       0.000     0.000
  YS02001644              4.32    484.14      0  03:55       3.684     0.000
  YS02001652              0.01     32.31      0  02:50       0.000     0.000
  YS02001655              0.01    277.55      0  02:50       0.000     0.000
  YS02001658              0.01    151.83      0  03:00       0.000     0.000
  YS02001622              0.01     45.28      0  03:07       0.000     0.000
  YS02001649              0.01     27.64      0  03:34       0.000     0.000
  YS02001625              0.04     17.44      0  03:10       0.001     0.000
  YS02001790              0.01     72.46      0  03:00       0.000     0.000
  JK-storage              3.83    360.20      0  03:04       1.678     0.000
  XR-storage              5.59    186.28      0  02:30       1.641     0.000
  
  
  **********************
  Storage Volume Summary
  **********************
  
  --------------------------------------------------------------------------------------------------
                         Average     Avg  Evap Exfil       Maximum     Max    Time of Max    Maximum
                          Volume    Pcnt  Pcnt  Pcnt        Volume    Pcnt     Occurrence    Outflow
  Storage Unit           1000 m3    Full  Loss  Loss       1000 m3    Full    days hr:min        LPS
  --------------------------------------------------------------------------------------------------
  JK-storage               0.183      63     0     0         0.291     100       0  03:02     600.00
  CC-storage               2.334      15     0     0         3.812      24       0  05:04     200.00
  XR-storage               0.891      96     0     0         0.926     100       0  02:14     285.00
  
  
  ***********************
  Outfall Loading Summary
  ***********************
  
  -----------------------------------------------------------
                         Flow       Avg       Max       Total
                         Freq      Flow      Flow      Volume
  Outfall Node           Pcnt       LPS       LPS    10^6 ltr
  -----------------------------------------------------------
  WSC                   99.99    555.81    822.03      11.423
  3                     81.15    241.71    597.65       2.695
  4                      0.00      0.00      0.00       0.000
  5                      0.00      0.00      0.00       0.000
  -----------------------------------------------------------
  System                45.29    797.52   1054.47      14.118
  
  
  ********************
  Link Flow Summary
  ********************
  
  -----------------------------------------------------------------------------
                                 Maximum  Time of Max   Maximum    Max/    Max/
                                  |Flow|   Occurrence   |Veloc|    Full    Full
  Link                 Type          LPS  days hr:min     m/sec    Flow   Depth
  -----------------------------------------------------------------------------
  WS02003066WSF200     CONDUIT    511.25     0  03:05      2.69    0.09    0.22
  WS02006287WS02006284 CONDUIT    204.71     0  02:27      1.62    0.09    0.22
  WS02006284WS02006280 CONDUIT    204.81     0  02:27      1.86    0.09    0.20
  WS02006280WS02006229 CONDUIT    204.81     0  02:27      2.99    0.04    0.14
  WS02006229WS02006228 CONDUIT    504.65     0  03:02      1.00    1.67    1.00
  WS02006256WS02006235 CONDUIT    177.52     0  00:01      2.73    1.88    1.00
  WS02006253WS02006251 CONDUIT     41.71     0  02:26      0.49    0.13    0.67
  WS02006252WS02006251 CONDUIT    200.33     0  02:40      1.97    0.74    0.76
  WS02006251WS02006249 CONDUIT    235.84     0  02:44      0.96    0.68    0.67
  WS02006249WS02006248 CONDUIT    235.29     0  03:01      1.03    1.29    0.66
  WS02006248WS02006247 CONDUIT    235.13     0  03:02      0.98    0.51    0.70
  WS02006247WS02006245 CONDUIT    234.96     0  03:02      0.93    1.86    0.74
  WS02006245WS02006243 CONDUIT    234.79     0  03:02      0.93    0.69    0.76
  WS02006243WS02006242 CONDUIT    234.56     0  03:03      0.75    0.50    0.86
  WS02006242WS02006240 CONDUIT    235.67     0  03:08      0.67    0.94    0.93
  WS02006240WS02006239 CONDUIT    237.15     0  03:08      0.67    0.75    0.92
  WS02006239WS02006238 CONDUIT    238.20     0  03:09      0.69    0.76    1.00
  WS02006238WS02006235 CONDUIT    238.72     0  03:09      1.32    0.53    1.00
  WS02006235WS02006234 CONDUIT    328.65     0  03:12      0.94    3.47    0.97
  WS02006234WS02006232 CONDUIT    329.74     0  03:13      1.17    0.67    0.99
  WS02006232WS02006231 CONDUIT    329.82     0  03:13      0.94    0.69    0.94
  WS02006231WS02006230 CONDUIT    331.47     0  03:13      1.29    5.03    0.87
  WS02006230WS02006229 CONDUIT    343.97     0  03:13      0.89    7.65    1.00
  WS02006228WS02006109 CONDUIT    504.65     0  03:02      1.00    2.20    1.00
  WS02006116WS02004401 CONDUIT    511.94     0  02:59      0.74    0.71    0.82
  WS02006115WS02006116 CONDUIT    512.64     0  02:58      0.82    0.66    0.74
  WS02006113WS02006111 CONDUIT    523.99     0  02:58      2.41    0.63    0.45
  WS02006112WS02006115 CONDUIT    523.51     0  03:02      0.73    0.31    0.86
  WS02006111WS02006112 CONDUIT    509.95     0  02:58      1.43    0.24    0.67
  WS02006110WS02006113 CONDUIT    506.14     0  03:02      1.21    0.46    0.77
  WS02006109WS02006110 CONDUIT    505.88     0  03:02      1.01    0.97    0.99
  WS02004411WS02004412 CONDUIT    511.34     0  03:03      0.90    0.73    0.68
  WS02004401WS02004402 CONDUIT    511.79     0  03:01      0.72    0.61    0.84
  WS02004413WS02003067 CONDUIT    511.24     0  03:05      1.08    0.22    0.58
  WS02004412WS02004413 CONDUIT    511.28     0  03:05      0.79    0.34    0.76
  WS02004410WS02004411 CONDUIT    511.38     0  03:03      0.91    0.70    0.67
  WS02004409WS02004410 CONDUIT    511.50     0  03:02      0.94    0.66    0.66
  WS02004407WS02004409 CONDUIT    511.65     0  03:02      1.42    0.18    0.47
  WS02004406WS02004407 CONDUIT    511.72     0  03:02      1.01    0.23    0.62
  WS02004405WS02004406 CONDUIT    511.85     0  03:01      0.67    1.01    0.94
  WS02004404WS02004405 CONDUIT    511.79     0  03:01      0.67    5.01    0.94
  WS02004403WS02004404 CONDUIT    511.58     0  03:01      0.68    0.37    0.91
  WS02004402WS02004403 CONDUIT    511.66     0  03:01      0.71    0.74    0.87
  WS02004139WS02001211 CONDUIT    285.89     0  03:23      0.69    0.36    0.53
  WS02004138WS02004139 CONDUIT    285.00     0  02:43      2.94    0.06    0.39
  WS02003067WS02003066 CONDUIT    511.24     0  03:05      1.17    0.16    0.41
  WS02001213WS02003059 CONDUIT    295.54     0  03:21      0.64    0.49    0.72
  WS02001212WS02001213 CONDUIT    294.49     0  03:22      1.08    0.45    0.41
  WS02001211WS02001212 CONDUIT    293.90     0  03:22      0.65    0.22    0.58
  WS02003072WS02003073 CONDUIT    820.21     0  03:08      1.65    1.77    0.45
  WS02003069WS02003072 CONDUIT    820.22     0  03:07      1.55    0.39    0.47
  WS02003060WS02003069 CONDUIT    819.92     0  03:07      1.80    0.32    0.42
  WS02003059WS02003060 CONDUIT    296.94     0  03:21      0.67    0.19    0.62
  HS02004901HS02004770 CONDUIT      9.22     0  02:24      0.05    0.03    0.31
  HS02004876HS02004881 CONDUIT     36.81     0  02:26      0.59    0.39    0.09
  HS02004870HS02004876 CONDUIT     29.40     0  02:26      0.41    0.02    0.10
  HS02004842HS02004848 CONDUIT      6.79     0  02:52      0.04    0.00    0.28
  HS02004837HS02004842 CONDUIT      7.01     0  03:02      0.41    0.00    0.29
  HS02004830HS02004837 CONDUIT     25.65     0  02:26      0.46    0.03    0.08
  HS02004824HS02004830 CONDUIT     25.79     0  02:27      0.49    0.03    0.08
  HS02004817HS02004824 CONDUIT     44.91     0  02:27      0.17    0.02    0.41
  HS02004770HS02004777 CONDUIT     48.37     0  02:24      0.21    0.09    0.33
  HS02004799HS02004480 CONDUIT    123.11     0  02:25      0.58    0.16    0.31
  HS02004792HS02004799 CONDUIT    112.10     0  02:25      0.66    0.07    0.24
  HS02004788HS02004792 CONDUIT     65.23     0  02:26      0.81    0.04    0.11
  HS02004785HS02004788 CONDUIT     48.34     0  02:26      0.49    0.36    0.14
  HS02004777HS02004785 CONDUIT     48.24     0  02:25      0.26    0.06    0.26
  HS02004480HS02004478 CONDUIT    146.06     0  02:26      0.94    0.62    0.22
  HS02004479HS02004480 CONDUIT     23.22     0  02:28      0.27    0.02    0.30
  HS02004862HS02004870 CONDUIT     22.03     0  02:27      0.49    0.02    0.06
  HS02004848HS02004852 CONDUIT      9.33     0  02:26      0.33    0.01    0.04
  HS02004856HS02004862 CONDUIT     14.82     0  02:26      0.35    0.01    0.06
  HS02004852HS02004856 CONDUIT      9.30     0  02:27      0.14    0.01    0.10
  HS02004802HS02004478 CONDUIT     59.19     0  02:29      0.33    0.05    0.26
  HS02004478WS02006287 CONDUIT    204.70     0  02:27      1.31    0.06    0.17
  HS02004817HS02004807 CONDUIT     45.68     0  02:29      0.13    0.03    0.52
  HS02004807HS02004802 CONDUIT     59.00     0  02:28      0.28    0.11    0.31
  YS02001759YS02001757 CONDUIT    382.85     0  03:01      0.49    0.27    1.00
  YS02001762YS02001759 CONDUIT    201.87     0  03:01      0.26    0.23    1.00
  YS02001765YS02001762 CONDUIT    200.10     0  03:01      0.28    0.19    1.00
  YS02001770YS02001767 CONDUIT    196.01     0  03:01      0.25    0.78    1.00
  YS02001774YS02001770 CONDUIT     32.98     0  01:57      0.22    0.02    1.00
  YS02001779YS02001774 CONDUIT     29.24     0  02:43      0.05    0.01    1.00
  YS02001649YS02001757 CONDUIT    632.17     0  02:58      0.80    0.38    1.00
  YS02001767YS02001765 CONDUIT    198.17     0  03:01      0.30    0.25    1.00
  YS02006561YS02001783 CONDUIT    658.76     0  03:04      2.09    0.34    0.77
  YS02001783YS02001784 CONDUIT    658.02     0  03:04      1.55    0.91    1.00
  YS02001784YS02001785 CONDUIT    659.29     0  03:04      1.66    1.53    1.00
  YS02001788YS02001790 CONDUIT    659.81     0  03:04      2.20    0.49    1.00
  YS02001790YS02001791 CONDUIT    660.09     0  03:04      2.63    0.72    1.00
  YS02001791YS02001793 CONDUIT    711.26     0  02:58      5.33    0.31    1.00
  YS02001910YS02001907 CONDUIT    216.35     0  03:03      0.49    0.12    0.91
  YS02001786YS02001788 CONDUIT    658.30     0  03:04      2.11    1.27    1.00
  YS02001915YS02001910 CONDUIT    220.36     0  03:01      0.55    0.11    0.71
  YS02001918YS02001915 CONDUIT     81.41     0  03:00      0.44    0.04    0.42
  YS02001923YS02001920 CONDUIT     64.77     0  03:02      0.57    0.03    0.22
  YS02001926YS02001923 CONDUIT     64.74     0  03:02      0.66    0.09    0.18
  YS02001929YS02001926 CONDUIT     64.92     0  03:01      0.71    0.03    0.17
  YS02001920YS02001918 CONDUIT     74.48     0  03:00      0.57    0.07    0.29
  YS02001629YS02163301 CONDUIT    170.24     0  02:59      0.22    0.21    1.00
  YS02001619YS02001622 CONDUIT    162.75     0  02:50      0.57    0.24    1.00
  YS02001622YS02001625 CONDUIT    213.66     0  02:48      0.31    0.11    1.00
  YS02001625YS02001629 CONDUIT    213.32     0  02:48      0.28    0.10    1.00
  YS02163301YS02001633 CONDUIT    170.28     0  02:59      0.22    0.16    1.00
  YS02163601YS02164001 CONDUIT    312.75     0  02:59      0.40    0.28    1.00
  YS02164001YS02001641 CONDUIT    312.62     0  03:00      0.40    0.43    1.00
  YS02001641YS02001644 CONDUIT    313.14     0  03:00      0.40    1.01    1.00
  YS02001647YS02001649 CONDUIT    455.56     0  03:00      0.58    0.24    1.00
  YS02006553YS02006556 CONDUIT    443.49     0  03:04      0.57    0.38    0.99
  YS02006556YS02006558 CONDUIT    455.86     0  03:02      0.58    0.36    1.00
  YSB6556YSB1171       CONDUIT     13.19     0  02:28      0.06    0.01    0.57
  YS02001907YS02006553 CONDUIT    444.04     0  03:04      0.49    0.52    1.00
  YS02006558YS02006561 CONDUIT    666.93     0  03:02      3.13    1.47    0.79
  YS02001633YS02163601 CONDUIT    312.66     0  02:59      0.40    0.33    1.00
  YS02001644YS02001647 CONDUIT    455.15     0  03:00      0.58    0.27    1.00
  YS02001745YS02001748 CONDUIT    534.98     0  03:06      1.42    0.21    0.93
  YS02001748YS02001751 CONDUIT    298.70     0  02:52      1.00    0.15    1.00
  YS02001751YS02001754 CONDUIT    198.13     0  02:49      0.86    0.10    1.00
  YS02001754YS02001757 CONDUIT    197.18     0  02:49      0.33    0.08    1.00
  YS02001882YS02001884 CONDUIT     13.65     0  03:04      0.09    0.02    0.65
  YS02001884YS02001887 CONDUIT     17.46     0  02:56      0.05    0.02    0.74
  YS02001890YS02001895 CONDUIT    238.54     0  03:03      0.41    0.11    0.70
  YS02001895YS02001898 CONDUIT    249.16     0  03:03      0.55    0.43    0.57
  YS02001898YS02001901 CONDUIT    245.44     0  03:04      0.47    0.16    0.65
  YS02001901YS02001904 CONDUIT    242.83     0  03:03      0.42    0.38    0.70
  YS02001904YS02001907 CONDUIT    252.57     0  03:02      0.36    0.09    0.84
  YS02001887YS02001890 CONDUIT    235.24     0  03:00      0.36    0.40    0.79
  YS02001652YS02001649 CONDUIT    247.62     0  02:58      0.56    0.12    1.00
  YS02001655YS02001652 CONDUIT    247.11     0  02:58      0.91    0.12    1.00
  YS02001658YS02001655 CONDUIT    373.73     0  02:50      1.15    0.16    1.00
  YS02001661YS02001658 CONDUIT    576.82     0  03:00      1.49    0.23    1.00
  YS02001664YS02001661 CONDUIT    493.46     0  03:32      1.36    0.15    0.70
  YSB1154YSB6556       CONDUIT     13.14     0  02:25      0.16    0.02    0.46
  YSB1174YSB1171       CONDUIT     10.08     0  02:23      0.04    0.02    0.57
  YSB1171HS02004479    CONDUIT     23.09     0  02:27      0.54    0.02    0.44
  HS02004881HS02006253 CONDUIT     40.75     0  02:26      1.69    0.01    0.12
  YS02001793JiankangQianchi CONDUIT    975.53     0  02:57     14.82    0.08    1.00
  YS02001757CaochengTiaoxuchi CONDUIT   1102.06     0  03:02      1.52    0.48    1.00
  WSF200WS02003060     CONDUIT    511.26     0  03:04      1.62    0.11    0.32
  1                    CONDUIT    822.03     0  03:08      3.15    0.29    0.37
  2                    CONDUIT      0.00     0  00:00      0.00    0.00    0.00
  3                    CONDUIT    597.65     0  00:00     10.05    0.95    0.86
  4                    CONDUIT      0.00     0  00:00      0.00    0.00    0.00
  CC-Pump-1            PUMP       200.00     0  02:40              1.00
  CC-Pump-2            PUMP        63.98     0  01:56              0.32
  JK-Pump-1            PUMP       300.00     0  00:00              1.00
  JK-Pump-2            PUMP       300.00     0  00:00              1.00
  XR-Pump-1            PUMP        95.00     0  00:50              1.00
  XR-Pump-2            PUMP        95.00     0  00:00              1.00
  XR-Pump-3            PUMP        95.00     0  01:20              1.00
  XR-Pump-4            PUMP        95.00     0  00:00              1.00
  
  
  ***************************
  Flow Classification Summary
  ***************************
  
  -------------------------------------------------------------------------------------
                      Adjusted    ---------- Fraction of Time in Flow Class ---------- 
                       /Actual         Up    Down  Sub   Sup   Up    Down  Norm  Inlet 
  Conduit               Length    Dry  Dry   Dry   Crit  Crit  Crit  Crit  Ltd   Ctrl  
  -------------------------------------------------------------------------------------
  WS02003066WSF200        1.00   0.11  0.00  0.00  0.00  0.89  0.00  0.00  0.69  0.00
  WS02006287WS02006284    1.00   0.05  0.02  0.00  0.39  0.55  0.00  0.00  0.77  0.00
  WS02006284WS02006280    1.00   0.06  0.00  0.00  0.00  0.00  0.00  0.94  0.00  0.00
  WS02006280WS02006229    1.00   0.06  0.00  0.00  0.00  0.00  0.00  0.94  0.00  0.00
  WS02006229WS02006228    1.00   0.00  0.00  0.00  0.98  0.00  0.00  0.02  0.00  0.00
  WS02006256WS02006235    1.00   0.00  0.00  0.00  0.99  0.01  0.00  0.00  0.00  0.00
  WS02006253WS02006251    1.00   0.04  0.02  0.00  0.94  0.00  0.01  0.00  0.00  0.00
  WS02006252WS02006251    1.00   0.11  0.00  0.00  0.00  0.00  0.89  0.00  0.00  0.00
  WS02006251WS02006249    1.00   0.00  0.00  0.00  1.00  0.00  0.00  0.00  0.61  0.00
  WS02006249WS02006248    1.00   0.00  0.03  0.00  0.65  0.00  0.32  0.00  0.00  0.00
  WS02006248WS02006247    1.00   0.03  0.00  0.00  0.96  0.00  0.00  0.01  0.53  0.00
  WS02006247WS02006245    1.00   0.03  0.00  0.00  0.95  0.00  0.00  0.03  0.00  0.00
  WS02006245WS02006243    1.00   0.02  0.00  0.00  0.91  0.00  0.00  0.06  0.02  0.00
  WS02006243WS02006242    1.00   0.01  0.01  0.00  0.98  0.00  0.00  0.00  0.56  0.00
  WS02006242WS02006240    1.00   0.01  0.00  0.00  0.99  0.00  0.00  0.00  0.00  0.00
  WS02006240WS02006239    1.00   0.00  0.00  0.00  0.84  0.00  0.00  0.15  0.02  0.00
  WS02006239WS02006238    1.00   0.00  0.00  0.00  1.00  0.00  0.00  0.00  0.32  0.00
  WS02006238WS02006235    1.00   0.00  0.00  0.00  1.00  0.00  0.00  0.00  0.00  0.00
  WS02006235WS02006234    1.00   0.00  0.00  0.00  0.85  0.00  0.15  0.00  0.00  0.00
  WS02006234WS02006232    1.00   0.00  0.00  0.00  0.99  0.01  0.00  0.00  0.33  0.00
  WS02006232WS02006231    1.00   0.00  0.01  0.00  0.98  0.00  0.01  0.00  0.00  0.00
  WS02006231WS02006230    1.00   0.01  0.00  0.00  0.73  0.00  0.26  0.00  0.00  0.00
  WS02006230WS02006229    1.00   0.00  0.00  0.00  0.97  0.00  0.00  0.03  0.01  0.00
  WS02006228WS02006109    1.00   0.00  0.00  0.00  0.99  0.00  0.00  0.00  0.00  0.00
  WS02006116WS02004401    1.00   0.03  0.00  0.00  0.97  0.00  0.00  0.00  0.00  0.00
  WS02006115WS02006116    1.00   0.03  0.00  0.00  0.95  0.00  0.00  0.02  0.01  0.00
  WS02006113WS02006111    1.00   0.03  0.00  0.00  0.00  0.97  0.00  0.00  0.07  0.00
  WS02006112WS02006115    1.00   0.03  0.00  0.00  0.97  0.00  0.00  0.00  0.00  0.00
  WS02006111WS02006112    1.00   0.03  0.00  0.00  0.97  0.00  0.00  0.00  0.98  0.00
  WS02006110WS02006113    1.00   0.02  0.00  0.00  0.97  0.00  0.00  0.00  0.00  0.00
  WS02006109WS02006110    1.00   0.00  0.02  0.00  0.97  0.00  0.00  0.00  0.00  0.00
  WS02004411WS02004412    1.00   0.07  0.00  0.00  0.93  0.00  0.00  0.00  0.00  0.00
  WS02004401WS02004402    1.00   0.03  0.00  0.00  0.97  0.00  0.00  0.00  0.00  0.00
  WS02004413WS02003067    1.00   0.08  0.02  0.00  0.00  0.00  0.91  0.00  0.00  0.00
  WS02004412WS02004413    1.00   0.08  0.00  0.00  0.92  0.00  0.00  0.00  0.01  0.00
  WS02004410WS02004411    1.00   0.07  0.00  0.00  0.93  0.00  0.00  0.00  0.00  0.00
  WS02004409WS02004410    1.00   0.07  0.00  0.00  0.93  0.00  0.00  0.00  0.00  0.00
  WS02004407WS02004409    1.00   0.07  0.00  0.00  0.92  0.00  0.00  0.00  0.80  0.00
  WS02004406WS02004407    1.00   0.00  0.07  0.00  0.93  0.00  0.00  0.00  0.00  0.00
  WS02004405WS02004406    1.00   0.00  0.00  0.00  1.00  0.00  0.00  0.00  0.02  0.00
  WS02004404WS02004405    1.00   0.00  0.00  0.00  1.00  0.00  0.00  0.00  0.00  0.00
  WS02004403WS02004404    1.00   0.00  0.03  0.00  0.97  0.00  0.00  0.00  0.02  0.00
  WS02004402WS02004403    1.00   0.03  0.00  0.00  0.97  0.00  0.00  0.00  0.00  0.00
  WS02004139WS02001211    1.00   0.00  0.00  0.00  0.99  0.00  0.01  0.00  0.00  0.00
  WS02004138WS02004139    1.00   0.00  0.00  0.00  0.98  0.02  0.00  0.00  1.00  0.00
  WS02003067WS02003066    1.00   0.09  0.01  0.00  0.90  0.00  0.00  0.00  0.00  0.00
  WS02001213WS02003059    1.00   0.01  0.01  0.00  0.99  0.00  0.00  0.00  0.00  0.00
  WS02001212WS02001213    1.00   0.01  0.00  0.00  0.74  0.00  0.25  0.00  0.00  0.00
  WS02001211WS02001212    1.00   0.00  0.01  0.00  0.99  0.00  0.00  0.00  0.00  0.00
  WS02003072WS02003073    1.00   0.00  0.00  0.00  0.00  0.00  0.00  1.00  0.00  0.00
  WS02003069WS02003072    1.00   0.00  0.00  0.00  0.99  0.01  0.00  0.00  0.56  0.00
  WS02003060WS02003069    1.00   0.00  0.00  0.00  0.96  0.04  0.00  0.00  0.54  0.00
  WS02003059WS02003060    1.00   0.00  0.00  0.00  0.99  0.01  0.00  0.00  0.01  0.00
  HS02004901HS02004770    1.00   0.06  0.00  0.00  0.94  0.00  0.00  0.00  0.00  0.00
  HS02004876HS02004881    1.00   0.03  0.00  0.00  0.97  0.00  0.00  0.00  0.00  0.00
  HS02004870HS02004876    1.00   0.01  0.00  0.00  0.98  0.00  0.00  0.00  0.95  0.00
  HS02004842HS02004848    1.00   0.00  0.06  0.00  0.94  0.00  0.00  0.00  0.61  0.00
  HS02004837HS02004842    1.00   0.00  0.00  0.00  0.98  0.02  0.00  0.00  0.11  0.00
  HS02004830HS02004837    1.00   0.00  0.00  0.00  1.00  0.00  0.00  0.00  0.99  0.00
  HS02004824HS02004830    1.00   0.00  0.00  0.00  1.00  0.00  0.00  0.00  0.00  0.00
  HS02004817HS02004824    1.00   0.00  0.00  0.00  1.00  0.00  0.00  0.00  1.00  0.00
  HS02004770HS02004777    1.00   0.00  0.05  0.00  0.94  0.00  0.00  0.00  0.03  0.00
  HS02004799HS02004480    1.00   0.01  0.03  0.00  0.93  0.00  0.03  0.00  0.00  0.00
  HS02004792HS02004799    1.00   0.00  0.00  0.00  0.98  0.02  0.00  0.00  0.98  0.00
  HS02004788HS02004792    1.00   0.00  0.00  0.00  0.98  0.02  0.00  0.00  0.98  0.00
  HS02004785HS02004788    1.00   0.00  0.00  0.00  1.00  0.00  0.00  0.00  0.00  0.00
  HS02004777HS02004785    1.00   0.00  0.00  0.00  1.00  0.00  0.00  0.00  0.13  0.00
  HS02004480HS02004478    1.00   0.06  0.00  0.00  0.46  0.00  0.00  0.48  0.00  0.00
  HS02004479HS02004480    1.00   0.03  0.00  0.00  0.97  0.00  0.00  0.00  0.12  0.00
  HS02004862HS02004870    1.00   0.00  0.00  0.00  1.00  0.00  0.00  0.00  0.06  0.00
  HS02004848HS02004852    1.00   0.06  0.00  0.00  0.94  0.00  0.00  0.00  0.69  0.00
  HS02004856HS02004862    1.00   0.00  0.07  0.00  0.93  0.00  0.00  0.00  0.81  0.00
  HS02004852HS02004856    1.00   0.06  0.00  0.00  0.94  0.00  0.00  0.00  0.86  0.00
  HS02004802HS02004478    1.00   0.06  0.00  0.00  0.94  0.00  0.00  0.00  0.03  0.00
  HS02004478WS02006287    1.00   0.07  0.00  0.00  0.60  0.34  0.00  0.00  0.77  0.00
  HS02004817HS02004807    1.00   0.00  0.06  0.00  0.94  0.00  0.00  0.00  0.01  0.00
  HS02004807HS02004802    1.00   0.06  0.00  0.00  0.94  0.00  0.00  0.00  0.00  0.00
  YS02001759YS02001757    1.00   0.00  0.00  0.00  1.00  0.00  0.00  0.00  0.16  0.00
  YS02001762YS02001759    1.00   0.00  0.00  0.00  1.00  0.00  0.00  0.00  0.03  0.00
  YS02001765YS02001762    1.00   0.00  0.00  0.00  1.00  0.00  0.00  0.00  0.15  0.00
  YS02001770YS02001767    1.00   0.00  0.00  0.00  1.00  0.00  0.00  0.00  0.00  0.00
  YS02001774YS02001770    1.00   0.00  0.05  0.00  0.94  0.00  0.00  0.00  0.03  0.00
  YS02001779YS02001774    1.00   0.00  0.00  0.00  1.00  0.00  0.00  0.00  0.21  0.00
  YS02001649YS02001757    1.00   0.00  0.00  0.00  1.00  0.00  0.00  0.00  0.16  0.00
  YS02001767YS02001765    1.00   0.00  0.00  0.00  1.00  0.00  0.00  0.00  0.01  0.00
  YS02006561YS02001783    1.00   0.08  0.00  0.00  0.45  0.47  0.00  0.00  0.69  0.00
  YS02001783YS02001784    1.00   0.00  0.08  0.00  0.92  0.00  0.00  0.00  0.01  0.00
  YS02001784YS02001785    1.00   0.00  0.00  0.00  1.00  0.00  0.00  0.00  0.19  0.00
  YS02001788YS02001790    1.00   0.00  0.00  0.00  0.61  0.39  0.00  0.00  0.25  0.00
  YS02001790YS02001791    1.00   0.00  0.00  0.00  0.58  0.42  0.00  0.00  0.17  0.00
  YS02001791YS02001793    1.00   0.00  0.00  0.00  0.61  0.39  0.00  0.00  0.02  0.00
  YS02001910YS02001907    1.00   0.00  0.00  0.00  0.97  0.00  0.00  0.03  0.12  0.00
  YS02001786YS02001788    1.00   0.00  0.00  0.00  0.58  0.42  0.00  0.00  0.00  0.00
  YS02001915YS02001910    1.00   0.00  0.00  0.00  0.99  0.01  0.00  0.00  0.18  0.00
  YS02001918YS02001915    1.00   0.00  0.01  0.00  0.98  0.01  0.00  0.00  0.69  0.00
  YS02001923YS02001920    1.00   0.00  0.00  0.00  1.00  0.00  0.00  0.00  1.00  0.00
  YS02001926YS02001923    1.00   0.00  0.04  0.00  0.00  0.00  0.96  0.00  0.00  0.00
  YS02001929YS02001926    1.00   0.00  0.06  0.00  0.94  0.00  0.00  0.00  0.87  0.00
  YS02001920YS02001918    1.00   0.00  0.01  0.00  0.99  0.00  0.00  0.00  0.00  0.00
  YS02001629YS02163301    1.00   0.06  0.00  0.00  0.93  0.00  0.00  0.00  0.00  0.00
  YS02001619YS02001622    1.00   0.06  0.00  0.00  0.94  0.00  0.00  0.00  0.00  0.00
  YS02001622YS02001625    1.00   0.06  0.00  0.00  0.94  0.00  0.00  0.00  0.07  0.00
  YS02001625YS02001629    1.00   0.06  0.02  0.00  0.89  0.00  0.03  0.00  0.00  0.00
  YS02163301YS02001633    1.00   0.00  0.06  0.00  0.94  0.00  0.00  0.00  0.00  0.00
  YS02163601YS02164001    1.00   0.00  0.04  0.00  0.96  0.00  0.00  0.00  0.00  0.00
  YS02164001YS02001641    1.00   0.02  0.03  0.00  0.96  0.00  0.00  0.00  0.06  0.00
  YS02001641YS02001644    1.00   0.00  0.01  0.00  0.99  0.00  0.00  0.00  0.00  0.00
  YS02001647YS02001649    1.00   0.00  0.07  0.00  0.93  0.00  0.00  0.00  0.01  0.00
  YS02006553YS02006556    1.00   0.03  0.00  0.00  0.97  0.00  0.00  0.00  0.03  0.00
  YS02006556YS02006558    1.00   0.00  0.01  0.00  0.99  0.00  0.00  0.00  0.00  0.00
  YSB6556YSB1171          1.00   0.03  0.02  0.00  0.94  0.00  0.00  0.00  0.00  0.00
  YS02001907YS02006553    1.00   0.01  0.02  0.00  0.97  0.00  0.00  0.00  0.00  0.00
  YS02006558YS02006561    1.00   0.08  0.00  0.00  0.00  0.92  0.00  0.00  0.60  0.00
  YS02001633YS02163601    1.00   0.00  0.02  0.00  0.98  0.00  0.00  0.00  0.15  0.00
  YS02001644YS02001647    1.00   0.00  0.07  0.00  0.93  0.00  0.00  0.00  0.00  0.00
  YS02001745YS02001748    1.00   0.00  0.00  0.00  0.79  0.02  0.00  0.19  0.05  0.00
  YS02001748YS02001751    1.00   0.00  0.00  0.00  0.95  0.05  0.00  0.00  0.16  0.00
  YS02001751YS02001754    1.00   0.00  0.00  0.00  0.91  0.00  0.00  0.08  0.02  0.00
  YS02001754YS02001757    1.00   0.00  0.00  0.00  0.99  0.01  0.00  0.00  0.20  0.00
  YS02001882YS02001884    1.00   0.06  0.00  0.00  0.94  0.00  0.00  0.00  0.00  0.00
  YS02001884YS02001887    1.00   0.04  0.01  0.00  0.95  0.00  0.00  0.00  0.00  0.00
  YS02001890YS02001895    1.00   0.01  0.06  0.00  0.93  0.00  0.00  0.00  0.00  0.00
  YS02001895YS02001898    1.00   0.07  0.00  0.00  0.92  0.00  0.01  0.00  0.00  0.00
  YS02001898YS02001901    1.00   0.07  0.00  0.00  0.93  0.00  0.00  0.00  0.03  0.00
  YS02001901YS02001904    1.00   0.07  0.00  0.00  0.93  0.00  0.00  0.00  0.00  0.00
  YS02001904YS02001907    1.00   0.01  0.06  0.00  0.93  0.00  0.00  0.00  0.00  0.00
  YS02001887YS02001890    1.00   0.00  0.01  0.00  0.97  0.00  0.02  0.00  0.00  0.00
  YS02001652YS02001649    1.00   0.00  0.00  0.00  1.00  0.00  0.00  0.00  0.18  0.00
  YS02001655YS02001652    1.00   0.00  0.00  0.00  0.92  0.00  0.00  0.08  0.02  0.00
  YS02001658YS02001655    1.00   0.00  0.06  0.00  0.89  0.05  0.00  0.00  0.12  0.00
  YS02001661YS02001658    1.00   0.06  0.00  0.00  0.79  0.15  0.00  0.00  0.14  0.00
  YS02001664YS02001661    1.00   0.06  0.00  0.00  0.76  0.18  0.00  0.00  0.27  0.00
  YSB1154YSB6556          1.00   0.06  0.00  0.00  0.94  0.00  0.00  0.00  0.02  0.00
  YSB1174YSB1171          1.00   0.04  0.01  0.00  0.95  0.00  0.00  0.00  0.00  0.00
  YSB1171HS02004479       1.00   0.03  0.00  0.00  0.96  0.00  0.00  0.00  0.10  0.00
  HS02004881HS02006253    1.00   0.04  0.00  0.00  0.55  0.01  0.00  0.40  0.29  0.00
  YS02001793JiankangQianchi    1.00   0.00  0.00  0.00  0.70  0.30  0.00  0.00  0.05  0.00
  YS02001757CaochengTiaoxuchi    1.00   0.00  0.11  0.00  0.89  0.00  0.00  0.00  0.00  0.00
  WSF200WS02003060        1.00   0.00  0.11  0.00  0.76  0.13  0.00  0.00  0.36  0.00
  1                       1.00   0.00  0.00  0.00  0.00  1.00  0.00  0.00  0.20  0.00
  2                       1.00   1.00  0.00  0.00  0.00  0.00  0.00  0.00  0.00  0.00
  3                       1.00   0.19  0.00  0.00  0.00  0.81  0.00  0.00  0.37  0.00
  4                       1.00   1.00  0.00  0.00  0.00  0.00  0.00  0.00  0.00  0.00
  
  
  *************************
  Conduit Surcharge Summary
  *************************
  
  ----------------------------------------------------------------------------
                                                           Hours        Hours 
                         --------- Hours Full --------   Above Full   Capacity
  Conduit                Both Ends  Upstream  Dnstream   Normal Flow   Limited
  ----------------------------------------------------------------------------
  WS02006229WS02006228        0.82      0.88      0.82      3.02         0.82
  WS02006256WS02006235        3.30      3.30      4.96      2.77         0.01
  WS02006249WS02006248        0.01      0.01      0.01      2.23         0.01
  WS02006247WS02006245        0.01      0.01      0.01      2.33         0.01
  WS02006239WS02006238        0.01      0.01      0.28      0.01         0.01
  WS02006238WS02006235        0.22      0.22      0.42      0.01         0.01
  WS02006235WS02006234        0.01      0.01      0.01      3.31         0.01
  WS02006234WS02006232        0.01      0.01      0.57      0.01         0.01
  WS02006232WS02006231        0.01      0.01      0.57      0.01         0.01
  WS02006231WS02006230        0.01      0.01      0.01      3.34         0.01
  WS02006230WS02006229        1.77      2.91      1.77      3.50         1.77
  WS02006228WS02006109        0.85      1.30      0.85      3.16         0.85
  WS02006112WS02006115        0.01      0.01      0.35      0.01         0.01
  WS02006111WS02006112        0.01      0.01      3.01      0.01         0.01
  WS02006110WS02006113        0.01      0.01      1.14      0.01         0.01
  WS02006109WS02006110        0.01      0.01      1.30      0.01         0.01
  WS02004405WS02004406        0.01      0.01      0.01      0.20         0.01
  WS02004404WS02004405        0.01      0.01      0.01      3.41         0.01
  WS02003072WS02003073        0.01      0.01      0.01      3.08         0.01
  YS02001759YS02001757        5.54      5.54      5.64      0.01         0.01
  YS02001762YS02001759        5.51      5.51      5.54      0.01         0.01
  YS02001765YS02001762        5.48      5.48      5.51      0.01         0.01
  YS02001770YS02001767        5.44      5.44      5.44      0.01         0.50
  YS02001774YS02001770        5.43      5.43      5.49      0.01         0.01
  YS02001779YS02001774        5.23      5.23      5.49      0.01         0.01
  YS02001649YS02001757        5.52      5.52      5.64      0.01         0.01
  YS02001767YS02001765        5.44      5.44      5.48      0.01         0.01
  YS02006561YS02001783        0.01      0.01      0.06      0.01         0.01
  YS02001783YS02001784        0.06      0.06      0.17      0.01         0.01
  YS02001784YS02001785        0.08      0.17      0.08      1.10         0.07
  YS02001788YS02001790        0.04      0.04      4.18      0.01         0.01
  YS02001790YS02001791        4.18      4.18      4.34      0.01         0.01
  YS02001791YS02001793        4.34      4.34      4.72      0.01         0.01
  YS02001910YS02001907        0.01      0.01      0.27      0.01         0.01
  YS02001786YS02001788        0.04      0.08      0.04      0.59         0.04
  YS02001629YS02163301        5.42      5.42      5.44      0.01         0.01
  YS02001619YS02001622        4.83      4.83      4.95      0.01         0.02
  YS02001622YS02001625        4.95      4.95      5.37      0.01         0.01
  YS02001625YS02001629        4.89      4.89      5.37      0.01         0.01
  YS02163301YS02001633        5.44      5.44      5.48      0.01         0.01
  YS02163601YS02164001        5.47      5.47      5.52      0.01         0.01
  YS02164001YS02001641        5.47      5.47      5.48      0.01         0.03
  YS02001641YS02001644        5.48      5.48      5.49      0.01         0.58
  YS02001647YS02001649        5.35      5.35      5.52      0.01         0.01
  YS02006553YS02006556        0.01      0.01      0.40      0.01         0.01
  YS02006556YS02006558        0.01      0.01      0.51      0.01         0.01
  YS02001907YS02006553        1.12      1.12      1.35      0.01         0.01
  YS02006558YS02006561        0.01      0.01      0.01      0.94         0.01
  YS02001633YS02163601        5.47      5.47      5.52      0.01         0.01
  YS02001644YS02001647        5.35      5.35      5.49      0.01         0.01
  YS02001745YS02001748        0.01      0.01      4.55      0.01         0.01
  YS02001748YS02001751        4.66      4.66      4.90      0.01         0.01
  YS02001751YS02001754        4.90      4.90      5.26      0.01         0.01
  YS02001754YS02001757        5.34      5.34      5.64      0.01         0.01
  YS02001904YS02001907        0.01      0.01      0.44      0.01         0.01
  YS02001652YS02001649        5.36      5.36      5.52      0.01         0.01
  YS02001655YS02001652        4.94      4.94      5.32      0.01         0.01
  YS02001658YS02001655        4.59      4.59      4.94      0.01         0.01
  YS02001661YS02001658        0.09      0.09      4.59      0.01         0.01
  YS02001664YS02001661        0.01      0.01      0.50      0.01         0.01
  YS02001793JiankangQianchi        4.62      4.62      5.17      0.01         0.01
  YS02001757CaochengTiaoxuchi        4.59      4.59      5.64      0.01         0.01
  3                           0.01      0.01      0.01      0.01         0.01
  
  
  ***************
  Pumping Summary
  ***************
  
  ---------------------------------------------------------------------------------------------------------
                                                  Min       Avg       Max     Total     Power    % Time Off
                        Percent   Number of      Flow      Flow      Flow    Volume     Usage    Pump Curve
  Pump                 Utilized   Start-Ups       LPS       LPS       LPS  10^6 ltr     Kw-hr    Low   High
  ---------------------------------------------------------------------------------------------------------
  CC-Pump-1               33.06           2      0.00    182.88    200.00     1.689      2.16    0.0    4.4
  CC-Pump-2                1.14           1      0.00     28.12     63.98     0.009      0.04    0.0  100.0
  JK-Pump-1               59.58           2      0.00    265.32    300.00     3.286     29.97    0.0    0.0
  JK-Pump-2               29.79           2      0.00    189.24    300.00     0.766     14.82    0.0    0.0
  XR-Pump-1               85.11           2      0.00     92.72     95.00     2.194     11.32    0.0    0.0
  XR-Pump-2               59.58           2      0.00     93.05     95.00     1.511     10.13    0.0    0.0
  XR-Pump-3                8.51           1      0.00     66.27     95.00     0.171      1.77    0.0    0.0
  XR-Pump-4               85.11           2      0.00     91.83     95.00     2.223     13.09    0.0    0.0
  

  Analysis begun on:  Wed Jan  5 18:31:31 2022
  Analysis ended on:  Wed Jan  5 18:31:34 2022
  Total elapsed time: 00:00:03