
  EPA STORM WATER MANAGEMENT MODEL - VERSION 5.1 (Build 5.3.0.dev0)
  --------------------------------------------------------------

  WARNING 04: minimum elevation drop used for Conduit WS02004404WS02004405
  WARNING 03: negative offset ignored for Link YS02001904YS02001907
  
  *********************************************************
  NOTE: The summary statistics displayed in this report are
  based on results found at every computational time step,  
  not just on results from each reporting time step.
  *********************************************************
  
  ****************
  Analysis Options
  ****************
  Flow Units ............... LPS
  Process Models:
    Rainfall/Runoff ........ YES
    RDII ................... NO
    Snowmelt ............... NO
    Groundwater ............ NO
    Flow Routing ........... YES
    Ponding Allowed ........ NO
    Water Quality .......... NO
  Infiltration Method ...... HORTON
  Flow Routing Method ...... DYNWAVE
  Surcharge Method ......... EXTRAN
  Starting Date ............ 08/28/2015 08:00:00
  Ending Date .............. 08/28/2015 15:50:00
  Antecedent Dry Days ...... 8.0
  Report Time Step ......... 00:01:00
  Wet Time Step ............ 00:01:00
  Dry Time Step ............ 00:01:00
  Routing Time Step ........ 5.00 sec
  Variable Time Step ....... YES
  Maximum Trials ........... 8
  Number of Threads ........ 4
  Head Tolerance ........... 0.001500 m
  
  
  **************************        Volume         Depth
  Runoff Quantity Continuity     hectare-m            mm
  **************************     ---------       -------
  Total Precipitation ......         4.854        10.627
  Evaporation Loss .........         0.000         0.000
  Infiltration Loss ........         1.246         2.727
  Surface Runoff ...........         2.607         5.707
  Final Storage ............         1.002         2.194
  Continuity Error (%) .....        -0.015
  
  
  **************************        Volume        Volume
  Flow Routing Continuity        hectare-m      10^6 ltr
  **************************     ---------     ---------
  Dry Weather Inflow .......         0.616         6.165
  Wet Weather Inflow .......         2.606        26.059
  Groundwater Inflow .......         0.000         0.000
  RDII Inflow ..............         0.000         0.000
  External Inflow ..........         0.102         1.024
  External Outflow .........         1.731        17.315
  Flooding Loss ............         1.043        10.431
  Evaporation Loss .........         0.000         0.000
  Exfiltration Loss ........         0.000         0.000
  Initial Stored Volume ....         0.076         0.761
  Final Stored Volume ......         0.652         6.516
  Continuity Error (%) .....        -0.744
  
  
  *************************
  Highest Continuity Errors
  *************************
  Node HS02004842 (17.68%)
  Node YS02001884 (11.85%)
  Node YS02001774 (6.10%)
  Node YSB1171 (3.62%)
  Node HS02004817 (3.28%)
  
  
  ***************************
  Time-Step Critical Elements
  ***************************
  Link WS02006252WS02006251 (51.95%)
  Link 3 (35.69%)
  Link WS02006280WS02006229 (4.25%)
  Link WS02006238WS02006235 (1.44%)
  Link YS02006556YS02006558 (1.28%)
  
  
  ********************************
  Highest Flow Instability Indexes
  ********************************
  Link YS02163301YS02001633 (47)
  Link YS02163601YS02164001 (47)
  Link YS02001629YS02163301 (47)
  Link YS02001619YS02001622 (45)
  Link YS02164001YS02001641 (42)
  
  
  *************************
  Routing Time Step Summary
  *************************
  Minimum Time Step           :     0.50 sec
  Average Time Step           :     1.05 sec
  Maximum Time Step           :     5.00 sec
  Percent in Steady State     :    -0.00
  Average Iterations per Step :     4.86
  Percent Not Converging      :    25.26
  
  
  ***************************
  Subcatchment Runoff Summary
  ***************************
  
  ------------------------------------------------------------------------------------------------------------------------------
                            Total      Total      Total      Total     Imperv       Perv      Total       Total     Peak  Runoff
                           Precip      Runon       Evap      Infil     Runoff     Runoff     Runoff      Runoff   Runoff   Coeff
  Subcatchment                 mm         mm         mm         mm         mm         mm         mm    10^6 ltr      LPS
  ------------------------------------------------------------------------------------------------------------------------------
  sub0                      10.63       0.00       0.00       0.74       8.62       0.00       8.62        0.01     1.33   0.811
  sub1                      10.63       0.00       0.00       1.17       8.20       0.00       8.20        0.05     9.09   0.772
  sub2                      10.63       0.00       0.00       3.93       5.79       0.00       5.79        0.05     8.42   0.544
  sub3                      10.63       0.00       0.00       3.93       5.75       0.00       5.75        0.13    19.27   0.541
  sub4                      10.63       0.00       0.00       1.17       8.05       0.00       8.05        0.17    23.93   0.757
  sub5                      10.63       0.00       0.00       0.74       8.57       0.00       8.57        0.10    16.17   0.806
  sub7                      10.63       0.00       0.00       0.96       8.41       0.00       8.41        0.03     5.13   0.792
  sub8                      10.63       0.00       0.00       0.96       8.41       0.00       8.41        0.05     9.46   0.791
  sub9                      10.63       0.00       0.00       0.96       8.40       0.00       8.40        0.04     7.08   0.791
  sub10                     10.63       0.00       0.00       0.85       8.48       0.00       8.48        0.09    15.87   0.798
  sub11                     10.63       0.00       0.00       0.85       8.50       0.00       8.50        0.10    17.56   0.800
  sub12                     10.63       0.00       0.00       1.38       8.06       0.00       8.06        0.07    13.15   0.758
  sub14                     10.63       0.00       0.00       0.96       8.40       0.00       8.40        0.08    13.93   0.791
  sub15                     10.63       0.00       0.00       3.19       6.46       0.00       6.46        0.11    19.14   0.608
  sub16                     10.63       0.00       0.00       3.51       6.20       0.00       6.20        0.06    12.01   0.584
  sub17                     10.63       0.00       0.00       3.40       6.29       0.00       6.29        0.05     9.91   0.592
  sub22                     10.63       0.00       0.00       4.57       5.27       0.00       5.27        0.33    59.53   0.496
  sub23                     10.63       0.00       0.00       3.93       5.82       0.00       5.82        0.28    50.05   0.548
  sub60                     10.63       0.00       0.00       1.28       6.54       0.00       6.54        1.98   196.13   0.615
  sub61                     10.63       0.00       0.00       1.81       6.69       0.00       6.69        2.06   224.83   0.630
  sub62                     10.63       0.00       0.00       0.85       7.26       0.00       7.26        2.23   236.97   0.684
  sub63                     10.63       0.00       0.00       3.08       5.87       0.00       5.87        1.78   199.96   0.553
  sub64                     10.63       0.00       0.00       1.59       6.27       0.00       6.27        1.91   187.22   0.590
  sub65                     10.63       0.00       0.00       1.38       6.37       0.00       6.37        1.96   190.91   0.599
  sub66                     10.63       0.00       0.00       3.08       5.39       0.00       5.39        1.65   167.73   0.507
  sub67                     10.63       0.00       0.00       0.85       7.71       0.00       7.71        2.38   272.25   0.726
  sub68                     10.63       0.00       0.00       1.49       7.05       0.00       7.05        2.17   241.26   0.664
  sub69                     10.63       0.00       0.00       1.59       7.35       0.00       7.35        1.72   204.41   0.692
  sub70                     10.63       7.50       0.00       6.16       9.71       0.01       9.71        2.22   229.02   0.536
  sub71                     10.63       0.00       0.00       0.85       7.06       0.00       7.06        1.67   170.86   0.664
  sub72                     10.63       0.00       0.00       0.74       5.52       0.00       5.52        1.12    91.59   0.519
  sub73                     10.63       9.45       0.00       6.83      10.48       0.00      10.49        2.46   215.21   0.522
  sub74                     10.63       0.00       0.00       7.97       2.19       0.00       2.19        0.88   108.49   0.206
  
  
  ******************
  Node Depth Summary
  ******************
  
  ---------------------------------------------------------------------------------
                                 Average  Maximum  Maximum  Time of Max    Reported
                                   Depth    Depth      HGL   Occurrence   Max Depth
  Node                 Type       Meters   Meters   Meters  days hr:min      Meters
  ---------------------------------------------------------------------------------
  WS02001211           JUNCTION     0.68     0.72     5.56     0  02:26        0.72
  WS02001212           JUNCTION     0.40     0.45     5.51     0  02:25        0.45
  WS02001213           JUNCTION     0.63     0.71     5.47     0  02:25        0.71
  WS02003069           JUNCTION     0.45     0.56     5.14     0  02:24        0.56
  WS02003072           JUNCTION     0.52     0.62     4.99     0  02:25        0.62
  WS02003073           JUNCTION     0.31     0.38     4.44     0  02:26        0.38
  WS02003060           JUNCTION     0.40     0.49     5.42     0  02:24        0.49
  WS02003066           JUNCTION     0.23     0.30     5.86     0  02:23        0.30
  WS02003059           JUNCTION     0.69     0.77     5.46     0  02:24        0.77
  WS02003067           JUNCTION     0.57     0.71     6.03     0  02:23        0.71
  WS02004401           JUNCTION     0.69     0.87     6.87     0  02:18        0.87
  WS02004402           JUNCTION     0.72     0.89     6.85     0  02:20        0.89
  WS02004403           JUNCTION     0.74     0.91     6.84     0  02:19        0.91
  WS02004404           JUNCTION     0.81     0.98     6.83     0  02:21        0.98
  WS02004406           JUNCTION     0.81     0.97     6.80     0  02:21        0.97
  WS02004409           JUNCTION     0.50     0.68     6.45     0  02:21        0.68
  WS02004410           JUNCTION     0.52     0.70     6.42     0  02:22        0.70
  WS02004411           JUNCTION     0.53     0.70     6.38     0  02:22        0.70
  WS02004412           JUNCTION     0.55     0.71     6.35     0  02:22        0.71
  WS02004413           JUNCTION     0.70     0.87     6.34     0  02:23        0.87
  WS02004405           JUNCTION     0.81     0.97     6.82     0  02:21        0.97
  WS02006109           JUNCTION     0.77     0.99     7.60     0  02:15        0.99
  WS02006110           JUNCTION     0.76     0.93     7.52     0  02:15        0.93
  WS02006111           JUNCTION     0.22     0.29     7.00     0  02:17        0.29
  WS02006112           JUNCTION     0.86     1.12     7.00     0  02:24        1.11
  WS02006113           JUNCTION     0.35     0.46     7.35     0  02:17        0.46
  WS02006115           JUNCTION     0.58     0.77     6.91     0  02:20        0.77
  WS02006116           JUNCTION     0.66     0.85     6.89     0  02:20        0.85
  WS02006230           JUNCTION     0.74     1.03     7.77     0  02:17        1.03
  WS02006231           JUNCTION     0.48     0.69     7.81     0  02:17        0.69
  WS02006232           JUNCTION     0.61     0.81     7.85     0  02:17        0.81
  WS02006234           JUNCTION     0.53     0.74     7.90     0  02:17        0.74
  WS02006235           JUNCTION     0.56     0.77     7.93     0  02:18        0.77
  WS02006238           JUNCTION     0.58     0.79     7.94     0  02:18        0.79
  WS02006240           JUNCTION     0.47     0.69     7.99     0  02:19        0.69
  WS02006242           JUNCTION     0.52     0.75     8.02     0  02:19        0.75
  WS02006243           JUNCTION     0.40     0.62     8.04     0  02:19        0.62
  WS02006245           JUNCTION     0.38     0.58     8.06     0  02:19        0.58
  WS02006247           JUNCTION     0.39     0.58     8.08     0  02:19        0.58
  WS02006248           JUNCTION     0.34     0.51     8.10     0  02:19        0.51
  WS02006249           JUNCTION     0.37     0.53     8.13     0  02:19        0.53
  WS02006239           JUNCTION     0.53     0.75     7.96     0  02:19        0.75
  WS02006251           JUNCTION     0.35     0.50     8.17     0  02:19        0.50
  WS02006252           JUNCTION     0.29     0.35     8.59     0  02:00        0.35
  WS02006253           JUNCTION     0.38     0.52     8.17     0  02:19        0.52
  WS02006256           JUNCTION     1.03     2.35     9.28     0  00:00        1.19
  WS02004138           JUNCTION     0.16     0.17     7.42     0  02:03        0.17
  WS02004407           JUNCTION     0.23     0.30     6.62     0  02:21        0.30
  WS02006228           JUNCTION     0.77     1.03     7.68     0  02:17        1.03
  WS02006229           JUNCTION     0.75     1.03     7.72     0  02:17        1.03
  WS02006280           JUNCTION     0.08     0.16     8.43     0  01:50        0.16
  WS02006284           JUNCTION     0.38     0.50     8.90     0  01:50        0.50
  WS02006287           JUNCTION     0.12     0.23     9.19     0  01:50        0.23
  WSF200               JUNCTION     0.22     0.32     5.55     0  02:23        0.32
  HS02004901           JUNCTION     0.14     0.24    10.06     0  01:47        0.24
  HS02004881           JUNCTION     0.01     0.03     9.06     0  01:50        0.03
  HS02004876           JUNCTION     0.05     0.11     9.14     0  01:47        0.11
  HS02004870           JUNCTION     0.02     0.05     9.33     0  01:50        0.05
  HS02004862           JUNCTION     0.02     0.05     9.44     0  01:51        0.05
  HS02004856           JUNCTION     0.08     0.11     9.54     0  01:51        0.11
  HS02004852           JUNCTION     0.01     0.03     9.54     0  01:52        0.03
  HS02004848           JUNCTION     0.01     0.03     9.63     0  01:51        0.03
  HS02004842           JUNCTION     0.33     0.36     9.63     0  01:51        0.36
  HS02004837           JUNCTION     0.03     0.05     9.63     0  01:51        0.05
  HS02004830           JUNCTION     0.04     0.07     9.54     0  01:51        0.07
  HS02004824           JUNCTION     0.03     0.05     9.45     0  02:16        0.05
  HS02004817           JUNCTION     0.45     0.54     9.39     0  01:51        0.54
  HS02004807           JUNCTION     0.14     0.22     9.39     0  01:51        0.22
  HS02004802           JUNCTION     0.17     0.25     9.38     0  01:51        0.25
  HS02004799           JUNCTION     0.14     0.28     9.49     0  01:48        0.28
  HS02004792           JUNCTION     0.04     0.11     9.63     0  01:47        0.11
  HS02004788           JUNCTION     0.03     0.08     9.98     0  01:48        0.08
  HS02004785           JUNCTION     0.06     0.14    10.04     0  01:48        0.14
  HS02004777           JUNCTION     0.16     0.26    10.06     0  01:47        0.26
  HS02004770           JUNCTION     0.13     0.23    10.06     0  01:47        0.23
  HS02004480           JUNCTION     0.10     0.21     9.46     0  01:48        0.21
  HS02004479           JUNCTION     0.13     0.25     9.46     0  01:48        0.25
  HS02004478           JUNCTION     0.07     0.14     9.37     0  01:49        0.14
  YS02001745           JUNCTION     0.65     0.87     8.38     0  03:12        0.86
  YS02001748           JUNCTION     1.03     1.92     9.00     0  02:35        1.31
  YS02001751           JUNCTION     1.21     2.17     9.04     0  02:18        1.52
  YS02001754           JUNCTION     1.46     2.16     8.76     0  02:18        1.80
  YS02001762           JUNCTION     1.66     2.03     8.43     0  03:08        2.02
  YS02001765           JUNCTION     1.62     1.97     8.42     0  03:19        1.96
  YS02001767           JUNCTION     1.58     1.93     8.42     0  03:11        1.92
  YS02001770           JUNCTION     1.57     1.91     8.40     0  02:54        1.90
  YS02001774           JUNCTION     1.64     1.98     8.40     0  02:15        1.96
  YS02001779           JUNCTION     1.39     1.68     8.37     0  02:15        1.68
  YS02001882           JUNCTION     0.46     0.84     7.56     0  03:02        0.84
  YS02001884           JUNCTION     0.56     0.94     7.56     0  03:02        0.94
  YS02001759           JUNCTION     1.70     2.07     8.43     0  03:09        2.06
  YS02001887           JUNCTION     0.63     1.02     7.56     0  03:03        1.02
  YS02001890           JUNCTION     0.66     1.05     7.56     0  03:03        1.05
  YS02001898           JUNCTION     0.43     0.81     7.55     0  03:03        0.81
  YS02001901           JUNCTION     0.55     0.94     7.55     0  03:02        0.94
  YS02001904           JUNCTION     0.53     0.91     7.54     0  03:03        0.91
  YS02001907           JUNCTION     0.86     1.25     7.54     0  03:04        1.25
  YS02001910           JUNCTION     0.65     1.04     7.55     0  03:03        1.04
  YS02001915           JUNCTION     0.45     0.83     7.55     0  03:03        0.83
  YS02001918           JUNCTION     0.17     0.48     7.55     0  03:02        0.48
  YS02001619           JUNCTION     1.18     1.61     8.54     0  02:25        1.49
  YS02001629           JUNCTION     1.53     1.85     8.40     0  02:32        1.85
  YS02001641           JUNCTION     1.63     1.96     8.40     0  02:38        1.93
  YS02001644           JUNCTION     1.63     1.92     8.35     0  02:39        1.92
  YS02001652           JUNCTION     1.48     2.16     8.76     0  02:20        2.05
  YS02001655           JUNCTION     1.24     2.20     9.05     0  02:21        1.91
  YS02001920           JUNCTION     0.27     0.55     7.56     0  03:03        0.54
  YS02001923           JUNCTION     0.11     0.29     7.55     0  03:02        0.29
  YS02001926           JUNCTION     0.20     0.26     7.71     0  03:01        0.26
  YS02001929           JUNCTION     0.10     0.14     7.84     0  03:01        0.14
  YS02001658           JUNCTION     0.97     2.30     9.44     0  02:28        1.64
  YS02001661           JUNCTION     0.75     2.30     9.70     0  03:08        1.30
  YS02001664           JUNCTION     0.33     0.57     8.49     0  02:48        0.56
  YS02001622           JUNCTION     1.20     1.62     8.52     0  02:30        1.51
  YS02001633           JUNCTION     1.62     1.97     8.43     0  02:37        1.93
  YS02001649           JUNCTION     1.67     2.05     8.44     0  02:47        2.05
  YS02001757           JUNCTION     1.79     2.17     8.43     0  03:14        2.16
  YS02001895           JUNCTION     0.43     0.81     7.55     0  03:03        0.81
  YS02001625           JUNCTION     1.48     1.78     8.38     0  02:31        1.78
  YS02163301           JUNCTION     1.56     1.91     8.43     0  02:32        1.87
  YS02163601           JUNCTION     1.67     2.03     8.43     0  02:38        1.98
  YS02164001           JUNCTION     1.61     1.96     8.42     0  02:38        1.91
  YS02001647           JUNCTION     1.46     1.80     8.41     0  02:52        1.80
  YSB1154              JUNCTION     0.27     0.40     9.46     0  01:48        0.40
  YSB6556              JUNCTION     0.17     0.29     9.46     0  01:48        0.29
  YSB1174              JUNCTION     0.23     0.35     9.46     0  01:48        0.35
  YSB1171              JUNCTION     0.42     0.55     9.46     0  01:48        0.55
  YS02006553           JUNCTION     0.86     1.25     7.53     0  03:04        1.25
  YS02006561           JUNCTION     0.25     0.56     7.22     0  03:03        0.56
  YS02006556           JUNCTION     0.83     1.21     7.52     0  03:03        1.21
  YS02006558           JUNCTION     0.87     1.24     7.51     0  03:03        1.24
  YS02001783           JUNCTION     0.54     1.45     7.59     0  02:23        1.07
  YS02001784           JUNCTION     0.57     1.50     7.57     0  02:23        1.07
  YS02001786           JUNCTION     0.53     1.78     7.81     0  02:23        0.99
  YS02001788           JUNCTION     0.50     1.73     7.70     0  02:23        0.93
  YS02001790           JUNCTION     0.68     1.96     7.60     0  02:21        1.16
  YS02001791           JUNCTION     0.71     1.66     7.13     0  02:23        1.22
  YS02001793           JUNCTION     1.06     2.89     7.72     0  02:19        1.79
  WS02004139           JUNCTION     0.62     0.67     5.58     0  02:27        0.67
  WSC                  OUTFALL      0.31     0.38     1.05     0  02:26        0.38
  3                    OUTFALL      0.11     0.23     6.23     0  00:00        0.19
  4                    OUTFALL      0.00     0.03     7.03     0  02:19        0.03
  5                    OUTFALL      0.00     0.00     5.00     0  00:00        0.00
  JK-storage           STORAGE      4.02     5.80     6.60     0  02:22        5.80
  CC-storage           STORAGE      1.01     1.37     8.37     0  03:15        1.37
  XR-storage           STORAGE      7.51     7.72     5.72     0  01:54        7.72
  
  
  *******************
  Node Inflow Summary
  *******************
  
  -------------------------------------------------------------------------------------------------
                                  Maximum  Maximum                  Lateral       Total        Flow
                                  Lateral    Total  Time of Max      Inflow      Inflow     Balance
                                   Inflow   Inflow   Occurrence      Volume      Volume       Error
  Node                 Type           LPS      LPS  days hr:min    10^6 ltr    10^6 ltr     Percent
  -------------------------------------------------------------------------------------------------
  WS02001211           JUNCTION      7.35   293.25     0  03:22       0.207        6.85       0.444
  WS02001212           JUNCTION      0.00   293.93     0  03:22           0        6.82       0.231
  WS02001213           JUNCTION      0.00   294.54     0  03:22           0         6.8       0.255
  WS02003069           JUNCTION      0.32   868.29     0  02:24     0.00902        13.9       0.109
  WS02003072           JUNCTION      0.00   868.12     0  02:24           0        13.9       0.150
  WS02003073           JUNCTION      1.82   869.84     0  02:25      0.0514        13.9       0.154
  WS02003060           JUNCTION     16.53   868.29     0  02:23       0.466        13.9       0.104
  WS02003066           JUNCTION      0.00   559.54     0  02:23           0        6.71       0.022
  WS02003059           JUNCTION      0.00   295.62     0  03:21           0        6.79       0.435
  WS02003067           JUNCTION      0.00   559.47     0  02:23           0        6.71       0.064
  WS02004401           JUNCTION      0.00   561.24     0  02:20           0        6.82       0.155
  WS02004402           JUNCTION      0.00   561.00     0  02:20           0        6.81       0.158
  WS02004403           JUNCTION      0.00   560.91     0  02:21           0        6.79       0.153
  WS02004404           JUNCTION      0.16   560.62     0  02:21     0.00457        6.79       0.126
  WS02004406           JUNCTION      0.00   560.64     0  02:21           0        6.77       0.311
  WS02004409           JUNCTION      0.00   560.10     0  02:21           0        6.75       0.044
  WS02004410           JUNCTION      0.00   559.88     0  02:22           0        6.74       0.071
  WS02004411           JUNCTION      0.00   559.72     0  02:22           0        6.74       0.088
  WS02004412           JUNCTION      0.00   559.69     0  02:22           0        6.73       0.117
  WS02004413           JUNCTION      0.00   559.72     0  02:22           0        6.72       0.207
  WS02004405           JUNCTION      0.04   560.48     0  02:19     0.00107        6.78       0.192
  WS02006109           JUNCTION      1.23   551.94     0  02:18      0.0347        6.81       0.167
  WS02006110           JUNCTION      0.00   551.92     0  02:18           0         6.8       0.121
  WS02006111           JUNCTION      0.00   574.01     0  02:19           0        6.79       0.011
  WS02006112           JUNCTION      9.91   566.06     0  02:17       0.054        6.85       0.230
  WS02006113           JUNCTION      0.00   552.70     0  02:18           0         6.8       0.028
  WS02006115           JUNCTION      0.00   580.14     0  02:15           0        6.83       0.102
  WS02006116           JUNCTION      0.00   561.68     0  02:20           0        6.82       0.115
  WS02006230           JUNCTION     10.28   342.66     0  03:11        0.29        5.15       0.181
  WS02006231           JUNCTION      0.00   330.73     0  03:12           0        4.86      -0.123
  WS02006232           JUNCTION      0.00   330.60     0  03:12           0        4.86       0.091
  WS02006234           JUNCTION      0.00   329.53     0  03:11           0        4.86      -0.061
  WS02006235           JUNCTION      0.00   328.90     0  03:11           0        4.89       0.082
  WS02006238           JUNCTION      0.00   243.26     0  02:31           0        3.22       0.005
  WS02006240           JUNCTION      0.00   242.74     0  02:30           0         3.2       0.012
  WS02006242           JUNCTION      0.00   242.42     0  02:29           0        3.19       0.023
  WS02006243           JUNCTION      0.00   241.65     0  02:29           0        3.19      -0.015
  WS02006245           JUNCTION      0.00   241.19     0  02:30           0        3.19       0.045
  WS02006247           JUNCTION      0.00   240.69     0  02:30           0        3.19       0.004
  WS02006248           JUNCTION      0.00   243.33     0  02:03           0        3.19      -0.013
  WS02006249           JUNCTION      0.00   247.37     0  02:17           0        3.19       0.033
  WS02006239           JUNCTION      0.00   243.12     0  02:30           0        3.21      -0.001
  WS02006251           JUNCTION      0.08   247.68     0  02:03     0.00217        3.19      -0.008
  WS02006252           JUNCTION      0.00   200.00     0  02:00           0        2.88       0.012
  WS02006253           JUNCTION      1.33    51.14     0  01:49     0.00698        0.31      -0.101
  WS02006256           JUNCTION      0.00   600.00     0  00:00           0        5.07       0.022
  WS02004138           JUNCTION      0.00   285.00     0  02:00           0        6.67       0.058
  WS02004407           JUNCTION      0.00   560.35     0  02:21           0        6.75       0.021
  WS02006228           JUNCTION      0.00   550.72     0  02:18           0        6.79       0.098
  WS02006229           JUNCTION      0.00   550.33     0  02:17           0        6.79       0.092
  WS02006280           JUNCTION      0.00   250.77     0  01:50           0        1.65       0.004
  WS02006284           JUNCTION      0.10   250.79     0  01:50      0.0027        1.65       0.062
  WS02006287           JUNCTION      0.00   250.70     0  01:50           0        1.65       0.044
  WSF200               JUNCTION      0.00   559.59     0  02:23           0         6.7       0.012
  HS02004901           JUNCTION     12.01    12.01     0  01:45      0.0649      0.0651       2.778
  HS02004881           JUNCTION      5.13    49.92     0  01:49      0.0283       0.303       0.118
  HS02004876           JUNCTION      9.09    44.88     0  01:50      0.0545       0.275       0.197
  HS02004870           JUNCTION      9.46    35.90     0  01:50      0.0537       0.221       0.049
  HS02004862           JUNCTION      8.62    26.77     0  01:51      0.0595       0.167       0.103
  HS02004856           JUNCTION      7.08    18.19     0  01:50      0.0404       0.109       1.338
  HS02004852           JUNCTION      0.00    11.37     0  01:51           0      0.0688       0.079
  HS02004848           JUNCTION     19.27    19.27     0  02:15       0.129       0.129       0.035
  HS02004842           JUNCTION      0.00     7.96     0  02:16           0      0.0736      21.473
  HS02004837           JUNCTION     22.22    28.76     0  01:50       0.273       0.333       0.245
  HS02004830           JUNCTION      0.15    28.90     0  01:51     0.00423       0.323       0.383
  HS02004824           JUNCTION     23.98    52.78     0  02:16       0.169       0.492       0.110
  HS02004817           JUNCTION      0.60    53.38     0  02:16      0.0169       0.508       3.394
  HS02004807           JUNCTION     17.56    68.44     0  02:16      0.0987        0.59       0.739
  HS02004802           JUNCTION      0.00    68.45     0  02:16           0       0.587       0.679
  HS02004799           JUNCTION     13.93   155.61     0  01:47      0.0799       0.915       0.288
  HS02004792           JUNCTION     59.81   141.74     0  01:47       0.341       0.835       0.049
  HS02004788           JUNCTION     20.81    82.40     0  01:48       0.158       0.496       0.078
  HS02004785           JUNCTION      0.15    61.69     0  01:47     0.00423       0.339       0.145
  HS02004777           JUNCTION      0.03    61.69     0  01:46    0.000846        0.34       1.552
  HS02004770           JUNCTION     50.05    61.90     0  01:46       0.278       0.341       0.915
  HS02004480           JUNCTION      0.00   184.53     0  01:48           0        1.08       0.105
  HS02004479           JUNCTION      0.00    29.01     0  01:50           0       0.176       0.418
  HS02004478           JUNCTION      0.00   250.67     0  01:49           0        1.65       0.021
  YS02001745           JUNCTION    196.14   371.27     0  02:34        1.98        1.99       0.577
  YS02001748           JUNCTION      0.04   534.18     0  02:35     0.00127        1.99       1.161
  YS02001751           JUNCTION      0.01   452.82     0  02:14     0.00031        1.95       1.191
  YS02001754           JUNCTION      0.26   221.97     0  02:28     0.00733        1.93       1.259
  YS02001762           JUNCTION      0.00   233.77     0  02:52           0         1.8       1.179
  YS02001765           JUNCTION      0.00   233.46     0  02:52           0        1.81       1.358
  YS02001767           JUNCTION      0.54   233.55     0  02:52      0.0151        1.83       1.984
  YS02001770           JUNCTION    237.12   237.12     0  03:00        2.24        2.24       1.394
  YS02001774           JUNCTION      0.00   172.00     0  03:18           0       0.413       6.492
  YS02001779           JUNCTION      0.01   172.37     0  03:18    0.000141        0.38       4.142
  YS02001882           JUNCTION      0.00    12.09     0  03:34           0       0.014      17.284
  YS02001884           JUNCTION      0.00    17.46     0  02:15           0      0.0482      13.443
  YS02001759           JUNCTION    224.87   454.41     0  02:52        2.06        3.83       0.592
  YS02001887           JUNCTION    272.70   272.70     0  02:58        2.39        2.42       0.334
  YS02001890           JUNCTION      0.00   268.05     0  02:59           0        2.38       0.370
  YS02001898           JUNCTION      0.00   264.87     0  03:00           0        2.36       0.117
  YS02001901           JUNCTION      0.00   263.18     0  03:01           0        2.36       0.276
  YS02001904           JUNCTION      0.00   262.34     0  03:02           0        2.36       0.251
  YS02001907           JUNCTION      0.00   526.60     0  03:06           0        5.21       0.449
  YS02001910           JUNCTION      0.00   268.01     0  03:09           0        2.86       0.395
  YS02001915           JUNCTION    170.88   264.38     0  03:04        1.67        2.86       0.195
  YS02001918           JUNCTION      0.00   107.29     0  03:16           0         1.2       0.142
  YS02001619           JUNCTION    167.73   167.73     0  03:01        1.65        1.65       0.723
  YS02001629           JUNCTION      0.00   208.23     0  02:18           0        1.57       1.802
  YS02001641           JUNCTION      0.00   352.16     0  03:00           0        3.43       0.619
  YS02001644           JUNCTION    187.26   832.95     0  03:14        1.91        7.43       0.350
  YS02001652           JUNCTION      0.00   267.56     0  02:27           0        1.73       1.334
  YS02001655           JUNCTION      0.15   395.13     0  02:20     0.00434        1.75       1.425
  YS02001920           JUNCTION      2.87   104.71     0  03:04      0.0809         1.2       0.227
  YS02001923           JUNCTION      0.04    91.49     0  03:01     0.00106        1.12       0.042
  YS02001926           JUNCTION      0.05    91.60     0  03:01     0.00147        1.12       0.282
  YS02001929           JUNCTION     91.59    91.59     0  03:01        1.12        1.12       0.042
  YS02001658           JUNCTION      0.00   615.46     0  02:27           0        1.81       1.171
  YS02001661           JUNCTION      0.00   591.63     0  02:47           0        2.43      -0.078
  YS02001664           JUNCTION    199.96   378.26     0  02:47        1.78         2.4       0.304
  YS02001622           JUNCTION      0.00   178.38     0  02:18           0        1.64       1.950
  YS02001633           JUNCTION    191.11   352.07     0  03:00        1.96        3.49       0.929
  YS02001649           JUNCTION      0.00   712.41     0  02:45           0        4.59       0.808
  YS02001757           JUNCTION      0.00  1318.00     0  02:46           0        8.17       1.139
  YS02001895           JUNCTION      0.00   266.95     0  02:59           0        2.37       0.201
  YS02001625           JUNCTION      0.00   208.27     0  02:18           0        1.61       2.475
  YS02163301           JUNCTION      0.00   188.89     0  02:29           0        1.55       1.555
  YS02163601           JUNCTION      0.11   352.00     0  03:00      0.0031        3.45       0.874
  YS02164001           JUNCTION      0.00   352.09     0  03:01           0        3.43       0.584
  YS02001647           JUNCTION      0.00   515.69     0  02:46           0        3.73       0.755
  YSB1154              JUNCTION     16.17    16.17     0  01:48       0.097      0.0978       1.500
  YSB6556              JUNCTION      0.00    16.24     0  01:49           0      0.0986       1.284
  YSB1174              JUNCTION     13.15    13.15     0  01:45      0.0704      0.0709       1.845
  YSB1171              JUNCTION      0.00    29.31     0  01:48           0       0.175       3.755
  YS02006553           JUNCTION      0.00   526.62     0  03:06           0         5.2       0.280
  YS02006561           JUNCTION      0.00   753.37     0  03:03           0        7.33       0.008
  YS02006556           JUNCTION      0.00   526.63     0  03:06           0         5.2       0.211
  YS02006558           JUNCTION    242.14   753.36     0  03:03        2.19        7.37       0.070
  YS02001783           JUNCTION      0.00   753.44     0  03:03           0        7.33       0.099
  YS02001784           JUNCTION      1.06   754.69     0  03:03      0.0299        7.36       0.147
  YS02001786           JUNCTION      0.06   754.58     0  03:03     0.00159        7.35       0.184
  YS02001788           JUNCTION      0.07   754.68     0  03:03       0.002        7.34       0.188
  YS02001790           JUNCTION      0.15   754.88     0  03:03     0.00437        7.33       0.234
  YS02001791           JUNCTION      0.00   754.97     0  03:03           0        7.31       0.202
  YS02001793           JUNCTION      0.00   754.97     0  03:03           0         7.3       0.232
  WS02004139           JUNCTION      0.32   285.32     0  02:03     0.00905        6.67       0.472
  WSC                  OUTFALL       0.00   869.74     0  02:26           0        13.9       0.000
  3                    OUTFALL       0.00   597.65     0  00:00           0        3.39       0.000
  4                    OUTFALL       0.00     7.19     0  02:19           0     0.00651       0.000
  5                    OUTFALL       0.00     0.00     0  00:00           0           0       0.000 ltr
  JK-storage           STORAGE       0.00   970.40     0  02:18           0        7.43      -3.049
  CC-storage           STORAGE       0.00  1318.08     0  02:46           0        6.78       0.963
  XR-storage           STORAGE     519.52   519.52     0  03:01        8.98        9.58      -0.001
  
  
  **********************
  Node Surcharge Summary
  **********************
  
  Surcharging occurs when water rises above the top of the highest conduit.
  ---------------------------------------------------------------------
                                               Max. Height   Min. Depth
                                   Hours       Above Crown    Below Rim
  Node                 Type      Surcharged         Meters       Meters
  ---------------------------------------------------------------------
  WS02006109           JUNCTION        1.73          0.167        1.653
  WS02006110           JUNCTION        0.60          0.025        1.825
  WS02006112           JUNCTION        1.12          0.116        1.564
  WS02006232           JUNCTION        1.27          0.112        1.368
  WS02006234           JUNCTION        0.38          0.021        1.219
  WS02006235           JUNCTION        1.00          0.056        1.234
  WS02006238           JUNCTION        1.08          0.072        1.358
  WS02006242           JUNCTION        0.31          0.017        0.803
  WS02006239           JUNCTION        0.30          0.013        1.277
  WS02006256           JUNCTION        0.01          1.050        0.000
  WS02006228           JUNCTION        1.71          0.198        2.002
  YS02001748           JUNCTION        5.14          0.843        0.347
  YS02001751           JUNCTION        5.43          1.166        0.034
  YS02001754           JUNCTION        5.72          1.106        0.044
  YS02001762           JUNCTION        5.94          1.029        0.121
  YS02001765           JUNCTION        5.92          0.973        0.127
  YS02001767           JUNCTION        5.90          0.931        0.099
  YS02001770           JUNCTION        5.88          0.877        0.043
  YS02001774           JUNCTION        5.93          0.977        0.073
  YS02001779           JUNCTION        5.69          0.680        0.000
  YS02001759           JUNCTION        5.97          1.066        0.144
  YS02001890           JUNCTION        0.03          0.003        0.757
  YS02001907           JUNCTION        1.25          0.243        0.707
  YS02001910           JUNCTION        0.21          0.040        1.060
  YS02001619           JUNCTION        5.40          0.610        0.000
  YS02001629           JUNCTION        5.42          0.470        0.000
  YS02001641           JUNCTION        5.93          0.960        0.140
  YS02001644           JUNCTION        5.93          0.920        0.000
  YS02001652           JUNCTION        5.77          1.130        0.000
  YS02001655           JUNCTION        5.45          1.200        0.000
  YS02001658           JUNCTION        5.17          1.300        0.000
  YS02001661           JUNCTION        0.20          1.230        0.160
  YS02001622           JUNCTION        5.48          0.620        0.000
  YS02001633           JUNCTION        5.91          0.952        0.108
  YS02001649           JUNCTION        5.95          1.050        0.000
  YS02001757           JUNCTION        6.03          1.169        0.041
  YS02001625           JUNCTION        5.84          0.780        0.000
  YS02163301           JUNCTION        5.89          0.911        0.119
  YS02163601           JUNCTION        5.95          1.029        0.051
  YS02164001           JUNCTION        5.92          0.963        0.137
  YS02001647           JUNCTION        5.81          0.804        0.096
  YS02006553           JUNCTION        1.34          0.250        0.940
  YS02006556           JUNCTION        0.68          0.168        1.182
  YS02006558           JUNCTION        0.59          0.144        1.256
  YS02001783           JUNCTION        1.01          0.647        0.953
  YS02001784           JUNCTION        1.08          0.704        0.786
  YS02001786           JUNCTION        1.02          0.982        0.448
  YS02001788           JUNCTION        1.01          0.926        0.554
  YS02001790           JUNCTION        3.44          1.157        0.000
  YS02001791           JUNCTION        3.63          0.858        1.062
  YS02001793           JUNCTION        3.95          1.885        0.715
  
  
  *********************
  Node Flooding Summary
  *********************
  
  Flooding refers to all water that overflows a node, whether it ponds or not.
  --------------------------------------------------------------------------
                                                             Total   Maximum
                                 Maximum   Time of Max       Flood    Ponded
                        Hours       Rate    Occurrence      Volume     Depth
  Node                 Flooded       LPS   days hr:min    10^6 ltr    Meters
  --------------------------------------------------------------------------
  WS02006256              0.01    406.11      0  00:00       0.001     0.000
  YS02001779              2.10    172.26      0  03:18       0.357     0.000
  YS02001619              0.01     15.82      0  02:28       0.000     0.000
  YS02001629              0.01     32.08      0  02:33       0.001     0.000
  YS02001644              5.07    832.89      0  03:14       5.782     0.000
  YS02001652              0.01     21.13      0  02:20       0.000     0.000
  YS02001655              0.01    162.33      0  02:21       0.000     0.000
  YS02001658              0.01    353.04      0  02:29       0.001     0.000
  YS02001622              0.01     30.20      0  02:31       0.000     0.000
  YS02001649              0.06     36.63      0  02:50       0.003     0.000
  YS02001625              0.31     26.08      0  02:35       0.004     0.000
  YS02001790              0.01     82.96      0  02:21       0.000     0.000
  JK-storage              3.06    454.88      0  03:03       2.297     0.000
  XR-storage              5.85    234.52      0  03:01       1.984     0.000
  
  
  **********************
  Storage Volume Summary
  **********************
  
  --------------------------------------------------------------------------------------------------
                         Average     Avg  Evap Exfil       Maximum     Max    Time of Max    Maximum
                          Volume    Pcnt  Pcnt  Pcnt        Volume    Pcnt     Occurrence    Outflow
  Storage Unit           1000 m3    Full  Loss  Loss       1000 m3    Full    days hr:min        LPS
  --------------------------------------------------------------------------------------------------
  JK-storage               0.202      69     0     0         0.291     100       0  02:22     600.00
  CC-storage               2.822      18     0     0         3.811      24       0  03:15     200.00
  XR-storage               0.901      97     0     0         0.926     100       0  01:54     285.00
  
  
  ***********************
  Outfall Loading Summary
  ***********************
  
  -----------------------------------------------------------
                         Flow       Avg       Max       Total
                         Freq      Flow      Flow      Volume
  Outfall Node           Pcnt       LPS       LPS    10^6 ltr
  -----------------------------------------------------------
  WSC                   99.99    626.74    869.74      13.916
  3                     88.70    215.94    597.65       3.392
  4                     11.34      3.30      7.19       0.007
  5                      0.00      0.00      0.00       0.000
  -----------------------------------------------------------
  System                50.01    845.99   1102.35      17.315
  
  
  ********************
  Link Flow Summary
  ********************
  
  -----------------------------------------------------------------------------
                                 Maximum  Time of Max   Maximum    Max/    Max/
                                  |Flow|   Occurrence   |Veloc|    Full    Full
  Link                 Type          LPS  days hr:min     m/sec    Flow   Depth
  -----------------------------------------------------------------------------
  WS02003066WSF200     CONDUIT    559.59     0  02:23      2.73    0.09    0.24
  WS02006287WS02006284 CONDUIT    250.69     0  01:50      1.73    0.12    0.24
  WS02006284WS02006280 CONDUIT    250.77     0  01:50      1.97    0.11    0.22
  WS02006280WS02006229 CONDUIT    250.77     0  01:50      3.17    0.05    0.16
  WS02006229WS02006228 CONDUIT    550.72     0  02:18      1.10    1.82    1.00
  WS02006256WS02006235 CONDUIT    177.52     0  00:01      2.73    1.88    1.00
  WS02006253WS02006251 CONDUIT     51.21     0  01:50      0.53    0.15    0.72
  WS02006252WS02006251 CONDUIT    200.34     0  02:00      1.97    0.74    0.76
  WS02006251WS02006249 CONDUIT    247.37     0  02:17      0.96    0.71    0.73
  WS02006249WS02006248 CONDUIT    243.33     0  02:03      1.03    1.33    0.73
  WS02006248WS02006247 CONDUIT    240.69     0  02:30      0.98    0.52    0.78
  WS02006247WS02006245 CONDUIT    241.19     0  02:30      0.91    1.91    0.82
  WS02006245WS02006243 CONDUIT    241.65     0  02:29      0.89    0.71    0.85
  WS02006243WS02006242 CONDUIT    242.42     0  02:29      0.72    0.52    0.94
  WS02006242WS02006240 CONDUIT    242.74     0  02:30      0.67    0.96    0.99
  WS02006240WS02006239 CONDUIT    243.12     0  02:30      0.68    0.77    1.00
  WS02006239WS02006238 CONDUIT    243.26     0  02:31      0.69    0.78    1.00
  WS02006238WS02006235 CONDUIT    243.27     0  02:31      1.32    0.54    1.00
  WS02006235WS02006234 CONDUIT    329.53     0  03:11      0.94    3.48    1.00
  WS02006234WS02006232 CONDUIT    330.60     0  03:12      1.17    0.67    1.00
  WS02006232WS02006231 CONDUIT    330.73     0  03:12      0.94    0.69    0.99
  WS02006231WS02006230 CONDUIT    332.38     0  03:11      1.29    5.04    0.96
  WS02006230WS02006229 CONDUIT    344.85     0  03:11      0.90    7.67    1.00
  WS02006228WS02006109 CONDUIT    550.71     0  02:18      1.10    2.41    1.00
  WS02006116WS02004401 CONDUIT    561.24     0  02:20      0.78    0.77    0.86
  WS02006115WS02006116 CONDUIT    561.68     0  02:20      0.86    0.72    0.78
  WS02006113WS02006111 CONDUIT    574.01     0  02:19      2.48    0.69    0.47
  WS02006112WS02006115 CONDUIT    580.14     0  02:15      0.79    0.34    0.88
  WS02006111WS02006112 CONDUIT    557.97     0  02:17      1.54    0.27    0.68
  WS02006110WS02006113 CONDUIT    552.70     0  02:18      1.30    0.50    0.79
  WS02006109WS02006110 CONDUIT    551.92     0  02:18      1.10    1.06    1.00
  WS02004411WS02004412 CONDUIT    559.69     0  02:22      0.94    0.80    0.71
  WS02004401WS02004402 CONDUIT    561.00     0  02:20      0.77    0.67    0.88
  WS02004413WS02003067 CONDUIT    559.47     0  02:23      1.14    0.24    0.60
  WS02004412WS02004413 CONDUIT    559.72     0  02:22      0.84    0.37    0.79
  WS02004410WS02004411 CONDUIT    559.72     0  02:22      0.95    0.76    0.70
  WS02004409WS02004410 CONDUIT    559.88     0  02:22      0.97    0.72    0.69
  WS02004407WS02004409 CONDUIT    560.10     0  02:21      1.45    0.20    0.49
  WS02004406WS02004407 CONDUIT    560.35     0  02:21      1.06    0.25    0.64
  WS02004405WS02004406 CONDUIT    560.64     0  02:21      0.72    1.11    0.97
  WS02004404WS02004405 CONDUIT    560.44     0  02:19      0.72    5.49    0.97
  WS02004403WS02004404 CONDUIT    560.46     0  02:21      0.73    0.41    0.94
  WS02004402WS02004403 CONDUIT    560.91     0  02:21      0.75    0.81    0.90
  WS02004139WS02001211 CONDUIT    285.90     0  03:22      0.69    0.36    0.54
  WS02004138WS02004139 CONDUIT    285.00     0  02:03      2.94    0.06    0.39
  WS02003067WS02003066 CONDUIT    559.54     0  02:23      1.23    0.18    0.42
  WS02001213WS02003059 CONDUIT    295.62     0  03:21      0.64    0.49    0.73
  WS02001212WS02001213 CONDUIT    294.54     0  03:22      1.08    0.45    0.42
  WS02001211WS02001212 CONDUIT    293.93     0  03:22      0.65    0.22    0.59
  WS02003072WS02003073 CONDUIT    868.02     0  02:25      1.68    1.87    0.47
  WS02003069WS02003072 CONDUIT    868.12     0  02:24      1.58    0.42    0.49
  WS02003060WS02003069 CONDUIT    867.97     0  02:24      1.83    0.34    0.44
  WS02003059WS02003060 CONDUIT    297.06     0  03:20      0.67    0.19    0.63
  HS02004901HS02004770 CONDUIT     11.86     0  01:47      0.05    0.04    0.34
  HS02004876HS02004881 CONDUIT     44.96     0  01:50      0.68    0.48    0.09
  HS02004870HS02004876 CONDUIT     35.89     0  01:50      0.47    0.02    0.11
  HS02004842HS02004848 CONDUIT      7.96     0  02:16      0.04    0.00    0.28
  HS02004837HS02004842 CONDUIT      8.06     0  02:20      0.41    0.00    0.30
  HS02004830HS02004837 CONDUIT     28.75     0  01:51      0.48    0.03    0.09
  HS02004824HS02004830 CONDUIT     28.90     0  01:52      0.51    0.04    0.08
  HS02004817HS02004824 CONDUIT     52.78     0  02:16      0.18    0.02    0.42
  HS02004770HS02004777 CONDUIT     61.66     0  01:46      0.25    0.11    0.35
  HS02004799HS02004480 CONDUIT    155.54     0  01:47      0.65    0.20    0.34
  HS02004792HS02004799 CONDUIT    141.71     0  01:47      0.74    0.09    0.27
  HS02004788HS02004792 CONDUIT     82.36     0  01:48      0.88    0.05    0.13
  HS02004785HS02004788 CONDUIT     61.65     0  01:48      0.55    0.46    0.16
  HS02004777HS02004785 CONDUIT     61.54     0  01:47      0.30    0.08    0.29
  HS02004480HS02004478 CONDUIT    184.33     0  01:49      1.04    0.78    0.25
  HS02004479HS02004480 CONDUIT     29.23     0  01:51      0.28    0.03    0.33
  HS02004862HS02004870 CONDUIT     26.75     0  01:51      0.52    0.03    0.07
  HS02004848HS02004852 CONDUIT     11.37     0  01:51      0.35    0.01    0.05
  HS02004856HS02004862 CONDUIT     18.17     0  01:51      0.38    0.02    0.07
  HS02004852HS02004856 CONDUIT     11.35     0  01:52      0.16    0.01    0.10
  HS02004802HS02004478 CONDUIT     68.53     0  02:17      0.36    0.06    0.28
  HS02004478WS02006287 CONDUIT    250.70     0  01:50      1.43    0.07    0.19
  HS02004817HS02004807 CONDUIT     53.46     0  02:17      0.14    0.03    0.54
  HS02004807HS02004802 CONDUIT     68.45     0  02:16      0.30    0.13    0.33
  YS02001759YS02001757 CONDUIT    454.84     0  02:52      0.58    0.32    1.00
  YS02001762YS02001759 CONDUIT    233.53     0  02:52      0.30    0.27    1.00
  YS02001765YS02001762 CONDUIT    233.77     0  02:52      0.30    0.22    1.00
  YS02001770YS02001767 CONDUIT    233.01     0  02:52      0.38    0.92    1.00
  YS02001774YS02001770 CONDUIT    172.00     0  03:18      0.24    0.11    1.00
  YS02001779YS02001774 CONDUIT    172.37     0  03:18      0.22    0.09    1.00
  YS02001649YS02001757 CONDUIT    712.51     0  02:45      0.91    0.43    1.00
  YS02001767YS02001765 CONDUIT    233.46     0  02:52      0.35    0.29    1.00
  YS02006561YS02001783 CONDUIT    753.44     0  03:03      2.11    0.39    0.85
  YS02001783YS02001784 CONDUIT    753.63     0  03:03      1.58    1.04    1.00
  YS02001784YS02001785 CONDUIT    754.52     0  03:03      1.70    1.76    1.00
  YS02001788YS02001790 CONDUIT    754.73     0  03:03      2.24    0.56    1.00
  YS02001790YS02001791 CONDUIT    754.97     0  03:03      2.70    0.82    1.00
  YS02001791YS02001793 CONDUIT    754.97     0  03:03      5.42    0.32    1.00
  YS02001910YS02001907 CONDUIT    270.74     0  03:18      0.49    0.15    1.00
  YS02001786YS02001788 CONDUIT    754.61     0  03:03      2.15    1.45    1.00
  YS02001915YS02001910 CONDUIT    268.01     0  03:09      0.56    0.13    0.92
  YS02001918YS02001915 CONDUIT    110.62     0  03:16      0.44    0.06    0.66
  YS02001923YS02001920 CONDUIT    101.84     0  03:04      0.64    0.05    0.42
  YS02001926YS02001923 CONDUIT     91.45     0  03:01      0.74    0.13    0.21
  YS02001929YS02001926 CONDUIT     91.54     0  03:01      0.81    0.04    0.20
  YS02001920YS02001918 CONDUIT    107.29     0  03:16      0.63    0.10    0.52
  YS02001629YS02163301 CONDUIT    188.89     0  02:29      0.24    0.23    1.00
  YS02001619YS02001622 CONDUIT    178.38     0  02:18      0.65    0.26    1.00
  YS02001622YS02001625 CONDUIT    208.27     0  02:18      0.32    0.11    1.00
  YS02001625YS02001629 CONDUIT    208.23     0  02:18      0.27    0.10    1.00
  YS02163301YS02001633 CONDUIT    188.95     0  02:29      0.24    0.18    1.00
  YS02163601YS02164001 CONDUIT    352.09     0  03:01      0.45    0.31    1.00
  YS02164001YS02001641 CONDUIT    352.16     0  03:00      0.45    0.48    1.00
  YS02001641YS02001644 CONDUIT    351.98     0  03:00      0.45    1.14    1.00
  YS02001647YS02001649 CONDUIT    515.72     0  02:46      0.66    0.27    1.00
  YS02006553YS02006556 CONDUIT    526.63     0  03:06      0.67    0.45    1.00
  YS02006556YS02006558 CONDUIT    526.67     0  03:06      0.67    0.42    1.00
  YSB6556YSB1171       CONDUIT     16.50     0  01:50      0.07    0.02    0.60
  YS02001907YS02006553 CONDUIT    526.62     0  03:06      0.59    0.62    1.00
  YS02006558YS02006561 CONDUIT    753.37     0  03:03      3.20    1.67    0.97
  YS02001633YS02163601 CONDUIT    351.89     0  03:00      0.45    0.37    1.00
  YS02001644YS02001647 CONDUIT    515.69     0  02:46      0.66    0.30    1.00
  YS02001745YS02001748 CONDUIT    534.14     0  02:35      1.51    0.21    0.93
  YS02001748YS02001751 CONDUIT    452.81     0  02:14      1.12    0.23    1.00
  YS02001751YS02001754 CONDUIT    221.71     0  02:28      0.97    0.11    1.00
  YS02001754YS02001757 CONDUIT    221.00     0  02:28      0.33    0.09    1.00
  YS02001882YS02001884 CONDUIT     12.96     0  03:33      0.12    0.01    0.86
  YS02001884YS02001887 CONDUIT     19.98     0  03:33      0.09    0.03    0.96
  YS02001890YS02001895 CONDUIT    266.95     0  02:59      0.43    0.12    0.90
  YS02001895YS02001898 CONDUIT    264.87     0  03:00      0.56    0.46    0.79
  YS02001898YS02001901 CONDUIT    263.18     0  03:01      0.48    0.17    0.88
  YS02001901YS02001904 CONDUIT    262.34     0  03:02      0.43    0.41    0.93
  YS02001904YS02001907 CONDUIT    268.42     0  02:21      0.38    0.09    0.96
  YS02001887YS02001890 CONDUIT    268.05     0  02:59      0.38    0.46    1.00
  YS02001652YS02001649 CONDUIT    268.28     0  02:27      0.58    0.13    1.00
  YS02001655YS02001652 CONDUIT    267.56     0  02:27      1.05    0.13    1.00
  YS02001658YS02001655 CONDUIT    394.98     0  02:20      1.29    0.17    1.00
  YS02001661YS02001658 CONDUIT    615.46     0  02:27      1.59    0.24    1.00
  YS02001664YS02001661 CONDUIT    591.63     0  02:47      1.44    0.19    0.71
  YSB1154YSB6556       CONDUIT     16.24     0  01:49      0.16    0.03    0.49
  YSB1174YSB1171       CONDUIT     13.23     0  01:45      0.06    0.02    0.61
  YSB1171HS02004479    CONDUIT     29.01     0  01:50      0.54    0.02    0.47
  HS02004881HS02006253 CONDUIT     49.92     0  01:50      1.83    0.01    0.15
  YS02001793JiankangQianchi CONDUIT    970.40     0  02:18     14.31    0.08    1.00
  YS02001757CaochengTiaoxuchi CONDUIT   1318.08     0  02:46      1.87    0.58    1.00
  WSF200WS02003060     CONDUIT    559.69     0  02:23      1.67    0.12    0.34
  1                    CONDUIT    869.74     0  02:26      3.20    0.30    0.38
  2                    CONDUIT      7.19     0  02:19      2.24    0.02    0.09
  3                    CONDUIT    597.65     0  00:00     10.05    0.95    0.86
  4                    CONDUIT      0.00     0  00:00      0.00    0.00    0.00
  CC-Pump-1            PUMP       200.00     0  02:00              1.00
  CC-Pump-2            PUMP        12.08     0  01:39              0.06
  JK-Pump-1            PUMP       300.00     0  00:00              1.00
  JK-Pump-2            PUMP       300.00     0  00:00              1.00
  XR-Pump-1            PUMP        95.00     0  00:50              1.00
  XR-Pump-2            PUMP        95.00     0  00:00              1.00
  XR-Pump-3            PUMP        94.81     0  01:20              1.00
  XR-Pump-4            PUMP        95.00     0  00:00              1.00
  
  
  ***************************
  Flow Classification Summary
  ***************************
  
  -------------------------------------------------------------------------------------
                      Adjusted    ---------- Fraction of Time in Flow Class ---------- 
                       /Actual         Up    Down  Sub   Sup   Up    Down  Norm  Inlet 
  Conduit               Length    Dry  Dry   Dry   Crit  Crit  Crit  Crit  Ltd   Ctrl  
  -------------------------------------------------------------------------------------
  WS02003066WSF200        1.00   0.09  0.00  0.00  0.00  0.91  0.00  0.00  0.62  0.00
  WS02006287WS02006284    1.00   0.04  0.01  0.00  0.47  0.48  0.00  0.00  0.70  0.00
  WS02006284WS02006280    1.00   0.05  0.00  0.00  0.00  0.00  0.00  0.95  0.00  0.00
  WS02006280WS02006229    1.00   0.05  0.00  0.00  0.00  0.00  0.00  0.95  0.00  0.00
  WS02006229WS02006228    1.00   0.00  0.00  0.00  0.98  0.00  0.00  0.02  0.00  0.00
  WS02006256WS02006235    1.00   0.00  0.00  0.00  0.99  0.01  0.00  0.00  0.00  0.00
  WS02006253WS02006251    1.00   0.03  0.01  0.00  0.95  0.00  0.01  0.00  0.00  0.00
  WS02006252WS02006251    1.00   0.08  0.00  0.00  0.00  0.00  0.92  0.00  0.00  0.00
  WS02006251WS02006249    1.00   0.00  0.00  0.00  1.00  0.00  0.00  0.00  0.41  0.00
  WS02006249WS02006248    1.00   0.00  0.02  0.00  0.86  0.00  0.12  0.00  0.00  0.00
  WS02006248WS02006247    1.00   0.02  0.00  0.00  0.97  0.00  0.00  0.01  0.31  0.00
  WS02006247WS02006245    1.00   0.02  0.00  0.00  0.96  0.00  0.00  0.02  0.00  0.00
  WS02006245WS02006243    1.00   0.02  0.00  0.00  0.94  0.00  0.00  0.04  0.02  0.00
  WS02006243WS02006242    1.00   0.01  0.01  0.00  0.98  0.00  0.00  0.00  0.40  0.00
  WS02006242WS02006240    1.00   0.01  0.00  0.00  0.99  0.00  0.00  0.00  0.00  0.00
  WS02006240WS02006239    1.00   0.00  0.00  0.00  0.91  0.00  0.00  0.09  0.02  0.00
  WS02006239WS02006238    1.00   0.00  0.00  0.00  1.00  0.00  0.00  0.00  0.18  0.00
  WS02006238WS02006235    1.00   0.00  0.00  0.00  1.00  0.00  0.00  0.00  0.00  0.00
  WS02006235WS02006234    1.00   0.00  0.00  0.00  0.92  0.00  0.08  0.00  0.00  0.00
  WS02006234WS02006232    1.00   0.00  0.00  0.00  1.00  0.00  0.00  0.00  0.18  0.00
  WS02006232WS02006231    1.00   0.00  0.00  0.00  0.99  0.00  0.01  0.00  0.00  0.00
  WS02006231WS02006230    1.00   0.01  0.00  0.00  0.64  0.00  0.35  0.00  0.00  0.00
  WS02006230WS02006229    1.00   0.00  0.00  0.00  0.98  0.00  0.00  0.02  0.01  0.00
  WS02006228WS02006109    1.00   0.00  0.00  0.00  0.99  0.00  0.00  0.00  0.00  0.00
  WS02006116WS02004401    1.00   0.03  0.00  0.00  0.97  0.00  0.00  0.00  0.00  0.00
  WS02006115WS02006116    1.00   0.03  0.00  0.00  0.96  0.00  0.00  0.01  0.01  0.00
  WS02006113WS02006111    1.00   0.02  0.00  0.00  0.00  0.98  0.00  0.00  0.09  0.00
  WS02006112WS02006115    1.00   0.02  0.00  0.00  0.97  0.00  0.00  0.00  0.00  0.00
  WS02006111WS02006112    1.00   0.02  0.00  0.00  0.98  0.00  0.00  0.00  0.98  0.00
  WS02006110WS02006113    1.00   0.02  0.00  0.00  0.98  0.00  0.00  0.00  0.00  0.00
  WS02006109WS02006110    1.00   0.00  0.02  0.00  0.98  0.00  0.00  0.00  0.00  0.00
  WS02004411WS02004412    1.00   0.06  0.00  0.00  0.94  0.00  0.00  0.00  0.00  0.00
  WS02004401WS02004402    1.00   0.03  0.00  0.00  0.97  0.00  0.00  0.00  0.00  0.00
  WS02004413WS02003067    1.00   0.06  0.02  0.00  0.00  0.00  0.92  0.00  0.00  0.00
  WS02004412WS02004413    1.00   0.06  0.00  0.00  0.93  0.00  0.00  0.00  0.00  0.00
  WS02004410WS02004411    1.00   0.06  0.00  0.00  0.94  0.00  0.00  0.00  0.00  0.00
  WS02004409WS02004410    1.00   0.06  0.00  0.00  0.94  0.00  0.00  0.00  0.00  0.00
  WS02004407WS02004409    1.00   0.06  0.00  0.00  0.94  0.01  0.00  0.00  0.81  0.00
  WS02004406WS02004407    1.00   0.00  0.06  0.00  0.94  0.00  0.00  0.00  0.00  0.00
  WS02004405WS02004406    1.00   0.00  0.00  0.00  1.00  0.00  0.00  0.00  0.02  0.00
  WS02004404WS02004405    1.00   0.00  0.00  0.00  1.00  0.00  0.00  0.00  0.00  0.00
  WS02004403WS02004404    1.00   0.00  0.03  0.00  0.97  0.00  0.00  0.00  0.02  0.00
  WS02004402WS02004403    1.00   0.03  0.00  0.00  0.97  0.00  0.00  0.00  0.00  0.00
  WS02004139WS02001211    1.00   0.00  0.00  0.00  0.99  0.00  0.01  0.00  0.00  0.00
  WS02004138WS02004139    1.00   0.00  0.00  0.00  0.98  0.01  0.00  0.00  1.00  0.00
  WS02003067WS02003066    1.00   0.08  0.01  0.00  0.91  0.00  0.00  0.00  0.00  0.00
  WS02001213WS02003059    1.00   0.00  0.01  0.00  0.99  0.00  0.00  0.00  0.00  0.00
  WS02001212WS02001213    1.00   0.01  0.00  0.00  0.83  0.00  0.16  0.00  0.00  0.00
  WS02001211WS02001212    1.00   0.00  0.01  0.00  0.99  0.00  0.00  0.00  0.00  0.00
  WS02003072WS02003073    1.00   0.00  0.00  0.00  0.00  0.00  0.00  1.00  0.00  0.00
  WS02003069WS02003072    1.00   0.00  0.00  0.00  0.99  0.01  0.00  0.00  0.40  0.00
  WS02003060WS02003069    1.00   0.00  0.00  0.00  0.98  0.02  0.00  0.00  0.38  0.00
  WS02003059WS02003060    1.00   0.00  0.00  0.00  0.99  0.01  0.00  0.00  0.01  0.00
  HS02004901HS02004770    1.00   0.05  0.00  0.00  0.95  0.00  0.00  0.00  0.00  0.00
  HS02004876HS02004881    1.00   0.02  0.00  0.00  0.98  0.00  0.00  0.00  0.00  0.00
  HS02004870HS02004876    1.00   0.01  0.00  0.00  0.99  0.00  0.00  0.00  0.95  0.00
  HS02004842HS02004848    1.00   0.00  0.04  0.00  0.95  0.00  0.00  0.00  0.58  0.00
  HS02004837HS02004842    1.00   0.00  0.00  0.00  0.99  0.01  0.00  0.00  0.11  0.00
  HS02004830HS02004837    1.00   0.00  0.00  0.00  1.00  0.00  0.00  0.00  0.99  0.00
  HS02004824HS02004830    1.00   0.00  0.00  0.00  1.00  0.00  0.00  0.00  0.00  0.00
  HS02004817HS02004824    1.00   0.00  0.00  0.00  1.00  0.00  0.00  0.00  1.00  0.00
  HS02004770HS02004777    1.00   0.00  0.04  0.00  0.95  0.00  0.00  0.00  0.03  0.00
  HS02004799HS02004480    1.00   0.01  0.02  0.00  0.95  0.00  0.03  0.00  0.00  0.00
  HS02004792HS02004799    1.00   0.00  0.00  0.00  0.98  0.02  0.00  0.00  0.98  0.00
  HS02004788HS02004792    1.00   0.00  0.00  0.00  0.98  0.02  0.00  0.00  0.98  0.00
  HS02004785HS02004788    1.00   0.00  0.00  0.00  1.00  0.00  0.00  0.00  0.00  0.00
  HS02004777HS02004785    1.00   0.00  0.00  0.00  1.00  0.00  0.00  0.00  0.12  0.00
  HS02004480HS02004478    1.00   0.05  0.00  0.00  0.54  0.00  0.00  0.42  0.00  0.00
  HS02004479HS02004480    1.00   0.03  0.00  0.00  0.97  0.00  0.00  0.00  0.12  0.00
  HS02004862HS02004870    1.00   0.00  0.00  0.00  1.00  0.00  0.00  0.00  0.04  0.00
  HS02004848HS02004852    1.00   0.05  0.00  0.00  0.95  0.00  0.00  0.00  0.77  0.00
  HS02004856HS02004862    1.00   0.00  0.05  0.00  0.95  0.00  0.00  0.00  0.83  0.00
  HS02004852HS02004856    1.00   0.05  0.00  0.00  0.95  0.00  0.00  0.00  0.86  0.00
  HS02004802HS02004478    1.00   0.05  0.00  0.00  0.95  0.00  0.00  0.00  0.03  0.00
  HS02004478WS02006287    1.00   0.05  0.00  0.00  0.63  0.32  0.00  0.00  0.68  0.00
  HS02004817HS02004807    1.00   0.00  0.05  0.00  0.95  0.00  0.00  0.00  0.01  0.00
  HS02004807HS02004802    1.00   0.05  0.00  0.00  0.95  0.00  0.00  0.00  0.00  0.00
  YS02001759YS02001757    1.00   0.00  0.00  0.00  1.00  0.00  0.00  0.00  0.16  0.00
  YS02001762YS02001759    1.00   0.00  0.00  0.00  1.00  0.00  0.00  0.00  0.03  0.00
  YS02001765YS02001762    1.00   0.00  0.00  0.00  1.00  0.00  0.00  0.00  0.14  0.00
  YS02001770YS02001767    1.00   0.00  0.00  0.00  1.00  0.00  0.00  0.00  0.00  0.00
  YS02001774YS02001770    1.00   0.00  0.04  0.00  0.95  0.00  0.00  0.00  0.03  0.00
  YS02001779YS02001774    1.00   0.00  0.00  0.00  1.00  0.00  0.00  0.00  0.18  0.00
  YS02001649YS02001757    1.00   0.00  0.00  0.00  1.00  0.00  0.00  0.00  0.16  0.00
  YS02001767YS02001765    1.00   0.00  0.00  0.00  1.00  0.00  0.00  0.00  0.00  0.00
  YS02006561YS02001783    1.00   0.06  0.00  0.00  0.50  0.44  0.00  0.00  0.61  0.00
  YS02001783YS02001784    1.00   0.00  0.06  0.00  0.94  0.00  0.00  0.00  0.00  0.00
  YS02001784YS02001785    1.00   0.00  0.00  0.00  1.00  0.00  0.00  0.00  0.17  0.00
  YS02001788YS02001790    1.00   0.00  0.00  0.00  0.63  0.37  0.00  0.00  0.39  0.00
  YS02001790YS02001791    1.00   0.00  0.00  0.00  0.60  0.40  0.00  0.00  0.28  0.00
  YS02001791YS02001793    1.00   0.00  0.00  0.00  0.62  0.38  0.00  0.00  0.04  0.00
  YS02001910YS02001907    1.00   0.00  0.00  0.00  0.98  0.00  0.00  0.02  0.12  0.00
  YS02001786YS02001788    1.00   0.00  0.00  0.00  0.60  0.40  0.00  0.00  0.00  0.00
  YS02001915YS02001910    1.00   0.00  0.00  0.00  0.99  0.01  0.00  0.00  0.16  0.00
  YS02001918YS02001915    1.00   0.00  0.01  0.00  0.98  0.01  0.00  0.00  0.60  0.00
  YS02001923YS02001920    1.00   0.00  0.00  0.00  1.00  0.00  0.00  0.00  0.93  0.00
  YS02001926YS02001923    1.00   0.00  0.03  0.00  0.00  0.00  0.97  0.00  0.00  0.00
  YS02001929YS02001926    1.00   0.00  0.05  0.00  0.95  0.00  0.00  0.00  0.87  0.00
  YS02001920YS02001918    1.00   0.00  0.01  0.00  0.99  0.00  0.00  0.00  0.00  0.00
  YS02001629YS02163301    1.00   0.05  0.00  0.00  0.95  0.00  0.00  0.00  0.00  0.00
  YS02001619YS02001622    1.00   0.05  0.00  0.00  0.95  0.00  0.00  0.00  0.00  0.00
  YS02001622YS02001625    1.00   0.05  0.00  0.00  0.95  0.00  0.00  0.00  0.04  0.00
  YS02001625YS02001629    1.00   0.05  0.01  0.00  0.92  0.00  0.02  0.00  0.00  0.00
  YS02163301YS02001633    1.00   0.00  0.05  0.00  0.95  0.00  0.00  0.00  0.00  0.00
  YS02163601YS02164001    1.00   0.00  0.04  0.00  0.96  0.00  0.00  0.00  0.00  0.00
  YS02164001YS02001641    1.00   0.01  0.02  0.00  0.96  0.00  0.00  0.00  0.06  0.00
  YS02001641YS02001644    1.00   0.00  0.01  0.00  0.99  0.00  0.00  0.00  0.00  0.00
  YS02001647YS02001649    1.00   0.00  0.05  0.00  0.94  0.00  0.00  0.00  0.01  0.00
  YS02006553YS02006556    1.00   0.02  0.00  0.00  0.98  0.00  0.00  0.00  0.03  0.00
  YS02006556YS02006558    1.00   0.00  0.01  0.00  0.99  0.00  0.00  0.00  0.00  0.00
  YSB6556YSB1171          1.00   0.03  0.02  0.00  0.96  0.00  0.00  0.00  0.00  0.00
  YS02001907YS02006553    1.00   0.01  0.02  0.00  0.98  0.00  0.00  0.00  0.00  0.00
  YS02006558YS02006561    1.00   0.06  0.00  0.00  0.09  0.86  0.00  0.00  0.52  0.00
  YS02001633YS02163601    1.00   0.00  0.01  0.00  0.99  0.00  0.00  0.00  0.15  0.00
  YS02001644YS02001647    1.00   0.00  0.06  0.00  0.94  0.00  0.00  0.00  0.00  0.00
  YS02001745YS02001748    1.00   0.00  0.00  0.00  0.87  0.01  0.00  0.11  0.04  0.00
  YS02001748YS02001751    1.00   0.00  0.00  0.00  0.97  0.03  0.00  0.00  0.14  0.00
  YS02001751YS02001754    1.00   0.00  0.00  0.00  0.94  0.00  0.00  0.06  0.02  0.00
  YS02001754YS02001757    1.00   0.00  0.00  0.00  0.99  0.01  0.00  0.00  0.18  0.00
  YS02001882YS02001884    1.00   0.05  0.00  0.00  0.95  0.00  0.00  0.00  0.00  0.00
  YS02001884YS02001887    1.00   0.03  0.01  0.00  0.96  0.00  0.00  0.00  0.00  0.00
  YS02001890YS02001895    1.00   0.00  0.05  0.00  0.95  0.00  0.00  0.00  0.00  0.00
  YS02001895YS02001898    1.00   0.05  0.00  0.00  0.94  0.00  0.01  0.00  0.00  0.00
  YS02001898YS02001901    1.00   0.05  0.00  0.00  0.95  0.00  0.00  0.00  0.01  0.00
  YS02001901YS02001904    1.00   0.05  0.00  0.00  0.95  0.00  0.00  0.00  0.00  0.00
  YS02001904YS02001907    1.00   0.01  0.05  0.00  0.95  0.00  0.00  0.00  0.00  0.00
  YS02001887YS02001890    1.00   0.00  0.00  0.00  0.98  0.00  0.02  0.00  0.00  0.00
  YS02001652YS02001649    1.00   0.00  0.00  0.00  1.00  0.00  0.00  0.00  0.16  0.00
  YS02001655YS02001652    1.00   0.00  0.00  0.00  0.94  0.00  0.00  0.06  0.02  0.00
  YS02001658YS02001655    1.00   0.00  0.05  0.00  0.92  0.03  0.00  0.00  0.05  0.00
  YS02001661YS02001658    1.00   0.05  0.00  0.00  0.87  0.08  0.00  0.00  0.04  0.00
  YS02001664YS02001661    1.00   0.05  0.00  0.00  0.83  0.13  0.00  0.00  0.21  0.00
  YSB1154YSB6556          1.00   0.04  0.00  0.00  0.96  0.00  0.00  0.00  0.02  0.00
  YSB1174YSB1171          1.00   0.03  0.01  0.00  0.96  0.00  0.00  0.00  0.00  0.00
  YSB1171HS02004479       1.00   0.03  0.00  0.00  0.97  0.00  0.00  0.00  0.10  0.00
  HS02004881HS02006253    1.00   0.03  0.00  0.00  0.77  0.01  0.00  0.18  0.51  0.00
  YS02001793JiankangQianchi    1.00   0.00  0.00  0.00  0.82  0.17  0.00  0.00  0.18  0.00
  YS02001757CaochengTiaoxuchi    1.00   0.00  0.08  0.00  0.92  0.00  0.00  0.00  0.00  0.00
  WSF200WS02003060        1.00   0.00  0.09  0.00  0.87  0.04  0.00  0.00  0.22  0.00
  1                       1.00   0.00  0.00  0.00  0.00  1.00  0.00  0.00  0.35  0.00
  2                       1.00   0.88  0.00  0.00  0.00  0.12  0.00  0.00  0.01  0.00
  3                       1.00   0.11  0.00  0.00  0.00  0.89  0.00  0.00  0.00  0.00
  4                       1.00   1.00  0.00  0.00  0.00  0.00  0.00  0.00  0.00  0.00
  
  
  *************************
  Conduit Surcharge Summary
  *************************
  
  ----------------------------------------------------------------------------
                                                           Hours        Hours 
                         --------- Hours Full --------   Above Full   Capacity
  Conduit                Both Ends  Upstream  Dnstream   Normal Flow   Limited
  ----------------------------------------------------------------------------
  WS02006229WS02006228        1.71      1.76      1.71      4.32         1.71
  WS02006256WS02006235        4.52      4.52      6.13      3.26         0.01
  WS02006249WS02006248        0.01      0.01      0.01      3.90         0.01
  WS02006247WS02006245        0.01      0.01      0.01      4.00         0.01
  WS02006243WS02006242        0.01      0.01      0.31      0.01         0.01
  WS02006242WS02006240        0.01      0.01      0.74      0.01         0.01
  WS02006240WS02006239        0.01      0.01      0.30      0.01         0.01
  WS02006239WS02006238        0.97      0.97      1.08      0.01         0.01
  WS02006238WS02006235        1.05      1.05      1.16      0.01         0.01
  WS02006235WS02006234        0.38      0.38      1.00      4.52         0.01
  WS02006234WS02006232        0.73      0.73      1.27      0.01         0.01
  WS02006232WS02006231        0.01      0.01      1.27      0.01         0.01
  WS02006231WS02006230        0.01      0.01      0.01      4.56         0.01
  WS02006230WS02006229        2.25      4.25      2.25      4.70         2.25
  WS02006228WS02006109        1.73      1.94      1.73      4.40         1.73
  WS02006112WS02006115        0.01      0.01      1.12      0.01         0.01
  WS02006111WS02006112        0.01      0.01      4.31      0.01         0.01
  WS02006110WS02006113        0.01      0.01      1.83      0.01         0.01
  WS02006109WS02006110        0.59      0.59      1.94      0.60         0.01
  WS02004405WS02004406        0.01      0.01      0.01      1.03         0.01
  WS02004404WS02004405        0.01      0.01      0.01      4.65         0.01
  WS02003072WS02003073        0.01      0.01      0.01      4.36         0.01
  YS02001759YS02001757        5.97      5.97      6.03      0.01         0.01
  YS02001762YS02001759        5.94      5.94      5.97      0.01         0.01
  YS02001765YS02001762        5.92      5.92      5.94      0.01         0.01
  YS02001770YS02001767        5.90      5.90      5.90      0.01         0.77
  YS02001774YS02001770        5.88      5.88      5.93      0.01         0.01
  YS02001779YS02001774        5.69      5.69      5.93      0.01         0.01
  YS02001649YS02001757        5.95      5.95      6.03      0.01         0.01
  YS02001767YS02001765        5.90      5.90      5.92      0.01         0.01
  YS02006561YS02001783        0.01      0.01      1.01      0.01         0.01
  YS02001783YS02001784        1.01      1.01      1.08      0.31         0.27
  YS02001784YS02001785        1.02      1.08      1.02      1.91         1.02
  YS02001788YS02001790        1.01      1.01      3.44      0.01         0.01
  YS02001790YS02001791        3.44      3.44      3.63      0.01         0.01
  YS02001791YS02001793        3.63      3.63      4.06      0.01         0.01
  YS02001910YS02001907        0.21      0.21      1.25      0.01         0.01
  YS02001786YS02001788        1.01      1.02      1.01      1.48         1.00
  YS02001915YS02001910        0.01      0.01      0.21      0.01         0.01
  YS02001629YS02163301        5.88      5.88      5.89      0.01         0.01
  YS02001619YS02001622        5.40      5.40      5.48      0.01         0.02
  YS02001622YS02001625        5.48      5.48      5.84      0.01         0.01
  YS02001625YS02001629        5.42      5.42      5.84      0.01         0.01
  YS02163301YS02001633        5.89      5.89      5.92      0.01         0.01
  YS02163601YS02164001        5.92      5.92      5.95      0.01         0.01
  YS02164001YS02001641        5.92      5.92      5.93      0.01         0.03
  YS02001641YS02001644        5.93      5.93      5.93      0.72         1.06
  YS02001647YS02001649        5.81      5.81      5.95      0.01         0.01
  YS02006553YS02006556        0.68      0.68      1.34      0.01         0.01
  YS02006556YS02006558        1.01      1.01      1.42      0.01         0.01
  YS02001907YS02006553        1.92      1.92      2.14      0.01         0.01
  YS02006558YS02006561        0.01      0.59      0.01      1.76         0.01
  YS02001633YS02163601        5.91      5.91      5.95      0.01         0.01
  YS02001644YS02001647        5.81      5.81      5.93      0.01         0.01
  YS02001745YS02001748        0.01      0.01      5.14      0.01         0.01
  YS02001748YS02001751        5.21      5.21      5.43      0.01         0.01
  YS02001751YS02001754        5.43      5.43      5.72      0.01         0.01
  YS02001754YS02001757        5.80      5.80      6.03      0.01         0.01
  YS02001890YS02001895        0.01      0.01      0.26      0.01         0.01
  YS02001904YS02001907        0.01      0.01      1.38      0.01         0.01
  YS02001887YS02001890        0.03      0.03      0.15      0.01         0.01
  YS02001652YS02001649        5.83      5.83      5.95      0.01         0.01
  YS02001655YS02001652        5.45      5.45      5.76      0.01         0.01
  YS02001658YS02001655        5.17      5.17      5.45      0.01         0.01
  YS02001661YS02001658        0.18      0.18      5.17      0.01         0.01
  YS02001664YS02001661        0.01      0.01      1.01      0.01         0.01
  YS02001793JiankangQianchi        3.95      3.95      5.44      0.01         0.01
  YS02001757CaochengTiaoxuchi        5.09      5.09      6.03      0.01         0.01
  3                           0.01      0.01      0.01      0.01         0.01
  
  
  ***************
  Pumping Summary
  ***************
  
  ---------------------------------------------------------------------------------------------------------
                                                  Min       Avg       Max     Total     Power    % Time Off
                        Percent   Number of      Flow      Flow      Flow    Volume     Usage    Pump Curve
  Pump                 Utilized   Start-Ups       LPS       LPS       LPS  10^6 ltr     Kw-hr    Low   High
  ---------------------------------------------------------------------------------------------------------
  CC-Pump-1               53.47           2      0.00    191.99    200.00     2.880      3.36    0.0    8.6
  CC-Pump-2                0.27           1      0.00      5.14     12.08     0.000      0.00    0.0  100.0
  JK-Pump-1               76.60           1      0.00    277.03    300.00     4.688     37.28    0.0    0.0
  JK-Pump-2               21.28           2      0.00    160.51    300.00     0.384      7.26    0.0    0.0
  XR-Pump-1               89.36           2      0.00     93.86     95.00     2.308     11.93    0.0    0.0
  XR-Pump-2               72.34           2      0.00     93.53     95.00     1.853     11.17    0.0    0.0
  XR-Pump-3                4.26           1      0.00     43.38     94.81     0.057      0.60    0.0    0.0
  XR-Pump-4               93.62           2      0.00     92.84     95.00     2.451     14.18    0.0    0.0
  

  Analysis begun on:  Wed Jan  5 18:37:30 2022
  Analysis ended on:  Wed Jan  5 18:37:34 2022
  Total elapsed time: 00:00:04