
  EPA STORM WATER MANAGEMENT MODEL - VERSION 5.1 (Build 5.3.0.dev0)
  --------------------------------------------------------------

  WARNING 04: minimum elevation drop used for Conduit WS02004404WS02004405
  WARNING 03: negative offset ignored for Link YS02001904YS02001907
  
  *********************************************************
  NOTE: The summary statistics displayed in this report are
  based on results found at every computational time step,  
  not just on results from each reporting time step.
  *********************************************************
  
  ****************
  Analysis Options
  ****************
  Flow Units ............... LPS
  Process Models:
    Rainfall/Runoff ........ YES
    RDII ................... NO
    Snowmelt ............... NO
    Groundwater ............ NO
    Flow Routing ........... YES
    Ponding Allowed ........ NO
    Water Quality .......... NO
  Infiltration Method ...... HORTON
  Flow Routing Method ...... DYNWAVE
  Surcharge Method ......... EXTRAN
  Starting Date ............ 08/28/2015 08:00:00
  Ending Date .............. 08/28/2015 15:50:00
  Antecedent Dry Days ...... 8.0
  Report Time Step ......... 00:01:00
  Wet Time Step ............ 00:01:00
  Dry Time Step ............ 00:01:00
  Routing Time Step ........ 5.00 sec
  Variable Time Step ....... YES
  Maximum Trials ........... 8
  Number of Threads ........ 4
  Head Tolerance ........... 0.001500 m
  
  
  **************************        Volume         Depth
  Runoff Quantity Continuity     hectare-m            mm
  **************************     ---------       -------
  Total Precipitation ......         1.797         3.934
  Evaporation Loss .........         0.000         0.000
  Infiltration Loss ........         0.442         0.967
  Surface Runoff ...........         0.570         1.248
  Final Storage ............         0.785         1.719
  Continuity Error (%) .....        -0.017
  
  
  **************************        Volume        Volume
  Flow Routing Continuity        hectare-m      10^6 ltr
  **************************     ---------     ---------
  Dry Weather Inflow .......         0.616         6.165
  Wet Weather Inflow .......         0.570         5.697
  Groundwater Inflow .......         0.000         0.000
  RDII Inflow ..............         0.000         0.000
  External Inflow ..........         0.102         1.024
  External Outflow .........         0.617         6.173
  Flooding Loss ............         0.556         5.565
  Evaporation Loss .........         0.000         0.000
  Exfiltration Loss ........         0.000         0.000
  Initial Stored Volume ....         0.076         0.761
  Final Stored Volume ......         0.194         1.940
  Continuity Error (%) .....        -0.235
  
  
  *************************
  Highest Continuity Errors
  *************************
  Node HS02004842 (38.68%)
  Node YS02001884 (32.64%)
  Node YS02001774 (17.57%)
  Node YSB1171 (11.43%)
  Node HS02004901 (9.69%)
  
  
  ***************************
  Time-Step Critical Elements
  ***************************
  Link WS02006252WS02006251 (88.95%)
  Link WS02006280WS02006229 (3.57%)
  Link 3 (3.00%)
  
  
  ********************************
  Highest Flow Instability Indexes
  ********************************
  Link WS02006113WS02006111 (52)
  Link WS02006111WS02006112 (29)
  Link YS02001754YS02001757 (3)
  Link YS02001751YS02001754 (3)
  Link YS02001649YS02001757 (3)
  
  
  *************************
  Routing Time Step Summary
  *************************
  Minimum Time Step           :     0.31 sec
  Average Time Step           :     1.07 sec
  Maximum Time Step           :     5.00 sec
  Percent in Steady State     :    -0.00
  Average Iterations per Step :     2.00
  Percent Not Converging      :     0.00
  
  
  ***************************
  Subcatchment Runoff Summary
  ***************************
  
  ------------------------------------------------------------------------------------------------------------------------------
                            Total      Total      Total      Total     Imperv       Perv      Total       Total     Peak  Runoff
                           Precip      Runon       Evap      Infil     Runoff     Runoff     Runoff      Runoff   Runoff   Coeff
  Subcatchment                 mm         mm         mm         mm         mm         mm         mm    10^6 ltr      LPS
  ------------------------------------------------------------------------------------------------------------------------------
  sub0                       3.93       0.00       0.00       0.28       2.39       0.00       2.39        0.00     0.73   0.608
  sub1                       3.93       0.00       0.00       0.43       2.25       0.00       2.25        0.01     3.65   0.572
  sub2                       3.93       0.00       0.00       1.46       1.58       0.00       1.58        0.01     3.20   0.400
  sub3                       3.93       0.00       0.00       1.46       1.54       0.00       1.54        0.03     6.50   0.393
  sub4                       3.93       0.00       0.00       0.43       2.13       0.00       2.13        0.04     7.20   0.540
  sub5                       3.93       0.00       0.00       0.28       2.35       0.00       2.35        0.03     6.50   0.597
  sub7                       3.93       0.00       0.00       0.35       2.33       0.00       2.33        0.01     2.33   0.591
  sub8                       3.93       0.00       0.00       0.35       2.32       0.00       2.32        0.01     4.09   0.589
  sub9                       3.93       0.00       0.00       0.35       2.32       0.00       2.32        0.01     3.03   0.589
  sub10                      3.93       0.00       0.00       0.31       2.33       0.00       2.33        0.03     6.51   0.592
  sub11                      3.93       0.00       0.00       0.31       2.35       0.00       2.35        0.03     7.71   0.596
  sub12                      3.93       0.00       0.00       0.51       2.23       0.00       2.23        0.02     6.64   0.568
  sub14                      3.93       0.00       0.00       0.35       2.31       0.00       2.31        0.02     5.91   0.588
  sub15                      3.93       0.00       0.00       1.18       1.78       0.00       1.78        0.03     8.00   0.452
  sub16                      3.93       0.00       0.00       1.30       1.72       0.00       1.72        0.02     5.81   0.437
  sub17                      3.93       0.00       0.00       1.26       1.74       0.00       1.74        0.01     4.68   0.443
  sub22                      3.93       0.00       0.00       1.69       1.45       0.00       1.45        0.09    26.40   0.370
  sub23                      3.93       0.00       0.00       1.46       1.61       0.00       1.61        0.08    22.54   0.409
  sub60                      3.93       0.00       0.00       0.47       1.35       0.00       1.35        0.41    33.98   0.344
  sub61                      3.93       0.00       0.00       0.67       1.50       0.00       1.50        0.46    43.58   0.382
  sub62                      3.93       0.00       0.00       0.31       1.59       0.00       1.59        0.49    44.33   0.405
  sub63                      3.93       0.00       0.00       1.14       1.36       0.00       1.36        0.41    40.95   0.345
  sub64                      3.93       0.00       0.00       0.59       1.29       0.00       1.29        0.39    32.20   0.328
  sub65                      3.93       0.00       0.00       0.51       1.30       0.00       1.30        0.40    32.60   0.331
  sub66                      3.93       0.00       0.00       1.14       1.14       0.00       1.14        0.35    29.79   0.289
  sub67                      3.93       0.00       0.00       0.31       1.81       0.00       1.81        0.56    57.80   0.460
  sub68                      3.93       0.00       0.00       0.55       1.61       0.00       1.61        0.50    48.39   0.410
  sub69                      3.93       0.00       0.00       0.59       1.80       0.00       1.80        0.42    48.97   0.458
  sub70                      3.93       1.84       0.00       1.96       2.04       0.00       2.04        0.47    35.35   0.353
  sub71                      3.93       0.00       0.00       0.31       1.50       0.00       1.50        0.35    30.71   0.382
  sub72                      3.93       0.00       0.00       0.28       0.98       0.00       0.98        0.20    13.74   0.250
  sub73                      3.93       1.98       0.00       2.01       1.96       0.00       1.96        0.46    30.14   0.331
  sub74                      3.93       0.00       0.00       2.95       0.55       0.00       0.55        0.22    27.52   0.140
  
  
  ******************
  Node Depth Summary
  ******************
  
  ---------------------------------------------------------------------------------
                                 Average  Maximum  Maximum  Time of Max    Reported
                                   Depth    Depth      HGL   Occurrence   Max Depth
  Node                 Type       Meters   Meters   Meters  days hr:min      Meters
  ---------------------------------------------------------------------------------
  WS02001211           JUNCTION     0.37     0.51     5.35     0  01:10        0.51
  WS02001212           JUNCTION     0.14     0.26     5.32     0  01:10        0.26
  WS02001213           JUNCTION     0.42     0.50     5.26     0  03:08        0.50
  WS02003069           JUNCTION     0.28     0.36     4.95     0  03:09        0.36
  WS02003072           JUNCTION     0.35     0.44     4.81     0  03:10        0.44
  WS02003073           JUNCTION     0.20     0.26     4.32     0  03:11        0.26
  WS02003060           JUNCTION     0.25     0.33     5.26     0  03:09        0.33
  WS02003066           JUNCTION     0.20     0.26     5.81     0  03:06        0.26
  WS02003059           JUNCTION     0.49     0.57     5.26     0  03:08        0.57
  WS02003067           JUNCTION     0.51     0.64     5.96     0  03:05        0.64
  WS02004401           JUNCTION     0.59     0.73     6.73     0  03:01        0.73
  WS02004402           JUNCTION     0.62     0.76     6.72     0  03:01        0.76
  WS02004403           JUNCTION     0.65     0.78     6.71     0  03:02        0.78
  WS02004404           JUNCTION     0.72     0.86     6.71     0  03:02        0.86
  WS02004406           JUNCTION     0.73     0.87     6.70     0  03:02        0.87
  WS02004409           JUNCTION     0.41     0.55     6.32     0  03:04        0.55
  WS02004410           JUNCTION     0.43     0.57     6.29     0  03:05        0.57
  WS02004411           JUNCTION     0.45     0.59     6.27     0  03:05        0.59
  WS02004412           JUNCTION     0.47     0.60     6.24     0  03:05        0.60
  WS02004413           JUNCTION     0.63     0.77     6.24     0  03:05        0.77
  WS02004405           JUNCTION     0.72     0.86     6.71     0  03:02        0.86
  WS02006109           JUNCTION     0.65     0.81     7.43     0  02:56        0.81
  WS02006110           JUNCTION     0.66     0.80     7.38     0  02:56        0.80
  WS02006111           JUNCTION     0.18     0.24     6.95     0  02:57        0.24
  WS02006112           JUNCTION     0.74     0.91     6.79     0  03:00        0.91
  WS02006113           JUNCTION     0.28     0.38     7.27     0  02:57        0.38
  WS02006115           JUNCTION     0.47     0.62     6.76     0  03:01        0.62
  WS02006116           JUNCTION     0.56     0.71     6.75     0  03:01        0.71
  WS02006230           JUNCTION     0.58     0.78     7.53     0  02:57        0.78
  WS02006231           JUNCTION     0.39     0.51     7.63     0  02:59        0.51
  WS02006232           JUNCTION     0.52     0.65     7.69     0  03:00        0.65
  WS02006234           JUNCTION     0.42     0.57     7.72     0  03:00        0.57
  WS02006235           JUNCTION     0.45     0.60     7.76     0  03:01        0.60
  WS02006238           JUNCTION     0.47     0.62     7.77     0  03:01        0.62
  WS02006240           JUNCTION     0.36     0.51     7.81     0  03:01        0.51
  WS02006242           JUNCTION     0.42     0.57     7.84     0  03:01        0.57
  WS02006243           JUNCTION     0.29     0.44     7.86     0  03:01        0.44
  WS02006245           JUNCTION     0.29     0.42     7.91     0  03:00        0.42
  WS02006247           JUNCTION     0.32     0.44     7.94     0  03:00        0.44
  WS02006248           JUNCTION     0.27     0.38     7.97     0  02:59        0.38
  WS02006249           JUNCTION     0.31     0.42     8.02     0  02:58        0.42
  WS02006239           JUNCTION     0.42     0.58     7.79     0  03:01        0.58
  WS02006251           JUNCTION     0.29     0.41     8.08     0  02:56        0.41
  WS02006252           JUNCTION     0.26     0.35     8.59     0  02:47        0.35
  WS02006253           JUNCTION     0.32     0.43     8.08     0  02:56        0.43
  WS02006256           JUNCTION     0.84     1.15     8.09     0  00:00        1.10
  WS02004138           JUNCTION     0.01     0.10     7.35     0  00:11        0.10
  WS02004407           JUNCTION     0.19     0.25     6.56     0  03:02        0.25
  WS02006228           JUNCTION     0.64     0.81     7.46     0  02:56        0.81
  WS02006229           JUNCTION     0.60     0.79     7.48     0  02:56        0.79
  WS02006280           JUNCTION     0.05     0.10     8.38     0  02:25        0.10
  WS02006284           JUNCTION     0.33     0.42     8.82     0  02:25        0.42
  WS02006287           JUNCTION     0.07     0.15     9.11     0  02:25        0.15
  WSF200               JUNCTION     0.18     0.24     5.48     0  03:06        0.24
  HS02004901           JUNCTION     0.10     0.18    10.00     0  02:24        0.18
  HS02004881           JUNCTION     0.00     0.02     9.04     0  02:25        0.02
  HS02004876           JUNCTION     0.03     0.08     9.11     0  02:25        0.08
  HS02004870           JUNCTION     0.01     0.03     9.31     0  02:24        0.03
  HS02004862           JUNCTION     0.01     0.03     9.41     0  02:25        0.03
  HS02004856           JUNCTION     0.07     0.09     9.52     0  02:24        0.09
  HS02004852           JUNCTION     0.00     0.02     9.53     0  02:26        0.02
  HS02004848           JUNCTION     0.00     0.02     9.62     0  02:22        0.02
  HS02004842           JUNCTION     0.32     0.35     9.62     0  02:22        0.35
  HS02004837           JUNCTION     0.02     0.04     9.62     0  02:22        0.04
  HS02004830           JUNCTION     0.03     0.05     9.52     0  02:23        0.05
  HS02004824           JUNCTION     0.02     0.03     9.43     0  02:26        0.03
  HS02004817           JUNCTION     0.41     0.48     9.33     0  02:25        0.48
  HS02004807           JUNCTION     0.10     0.16     9.33     0  02:25        0.16
  HS02004802           JUNCTION     0.14     0.19     9.32     0  02:25        0.19
  HS02004799           JUNCTION     0.09     0.19     9.40     0  02:23        0.19
  HS02004792           JUNCTION     0.02     0.06     9.59     0  02:22        0.06
  HS02004788           JUNCTION     0.01     0.05     9.95     0  02:24        0.05
  HS02004785           JUNCTION     0.03     0.09     9.99     0  02:24        0.09
  HS02004777           JUNCTION     0.12     0.20    10.00     0  02:23        0.20
  HS02004770           JUNCTION     0.09     0.17    10.00     0  02:23        0.17
  HS02004480           JUNCTION     0.05     0.14     9.38     0  02:24        0.14
  HS02004479           JUNCTION     0.09     0.18     9.38     0  02:24        0.18
  HS02004478           JUNCTION     0.04     0.09     9.32     0  02:25        0.09
  YS02001745           JUNCTION     0.06     0.08     7.60     0  03:01        0.08
  YS02001748           JUNCTION     0.07     0.09     7.17     0  03:01        0.09
  YS02001751           JUNCTION     0.18     0.29     7.17     0  03:08        0.29
  YS02001754           JUNCTION     0.43     0.57     7.18     0  03:08        0.57
  YS02001762           JUNCTION     0.62     0.77     7.17     0  03:12        0.77
  YS02001765           JUNCTION     0.57     0.72     7.17     0  03:12        0.72
  YS02001767           JUNCTION     0.54     0.68     7.17     0  03:11        0.68
  YS02001770           JUNCTION     0.53     0.67     7.17     0  03:11        0.67
  YS02001774           JUNCTION     0.60     0.75     7.17     0  03:12        0.75
  YS02001779           JUNCTION     0.36     0.48     7.17     0  03:10        0.48
  YS02001882           JUNCTION     0.22     0.31     7.03     0  03:00        0.31
  YS02001884           JUNCTION     0.31     0.41     7.03     0  03:01        0.41
  YS02001759           JUNCTION     0.65     0.81     7.17     0  03:07        0.80
  YS02001887           JUNCTION     0.38     0.49     7.03     0  03:01        0.49
  YS02001890           JUNCTION     0.41     0.52     7.03     0  03:00        0.52
  YS02001898           JUNCTION     0.19     0.28     7.01     0  03:02        0.28
  YS02001901           JUNCTION     0.30     0.40     7.01     0  03:01        0.40
  YS02001904           JUNCTION     0.28     0.38     7.01     0  03:01        0.38
  YS02001907           JUNCTION     0.61     0.72     7.01     0  03:01        0.72
  YS02001910           JUNCTION     0.40     0.50     7.01     0  03:00        0.50
  YS02001915           JUNCTION     0.20     0.29     7.01     0  03:01        0.29
  YS02001918           JUNCTION     0.06     0.07     7.13     0  03:04        0.07
  YS02001619           JUNCTION     0.15     0.24     7.17     0  03:07        0.24
  YS02001629           JUNCTION     0.48     0.62     7.17     0  03:06        0.62
  YS02001641           JUNCTION     0.59     0.73     7.17     0  03:10        0.73
  YS02001644           JUNCTION     0.59     0.74     7.17     0  03:10        0.74
  YS02001652           JUNCTION     0.44     0.58     7.17     0  03:04        0.57
  YS02001655           JUNCTION     0.21     0.32     7.17     0  03:04        0.32
  YS02001920           JUNCTION     0.14     0.16     7.17     0  03:04        0.16
  YS02001923           JUNCTION     0.04     0.06     7.32     0  03:02        0.06
  YS02001926           JUNCTION     0.11     0.13     7.57     0  03:02        0.13
  YS02001929           JUNCTION     0.05     0.06     7.75     0  03:01        0.06
  YS02001658           JUNCTION     0.06     0.09     7.23     0  02:53        0.09
  YS02001661           JUNCTION     0.12     0.16     7.56     0  02:53        0.16
  YS02001664           JUNCTION     0.05     0.08     8.00     0  02:53        0.08
  YS02001622           JUNCTION     0.17     0.27     7.17     0  03:07        0.27
  YS02001633           JUNCTION     0.57     0.72     7.17     0  03:08        0.72
  YS02001649           JUNCTION     0.63     0.78     7.17     0  03:09        0.78
  YS02001757           JUNCTION     0.75     0.91     7.17     0  03:11        0.91
  YS02001895           JUNCTION     0.18     0.27     7.02     0  03:01        0.27
  YS02001625           JUNCTION     0.44     0.57     7.17     0  03:07        0.57
  YS02163301           JUNCTION     0.51     0.65     7.17     0  03:06        0.65
  YS02163601           JUNCTION     0.63     0.77     7.17     0  03:08        0.77
  YS02164001           JUNCTION     0.57     0.71     7.17     0  03:07        0.71
  YS02001647           JUNCTION     0.43     0.56     7.17     0  03:10        0.56
  YSB1154              JUNCTION     0.22     0.32     9.38     0  02:24        0.32
  YSB6556              JUNCTION     0.12     0.21     9.38     0  02:23        0.21
  YSB1174              JUNCTION     0.18     0.27     9.38     0  02:24        0.27
  YSB1171              JUNCTION     0.37     0.48     9.38     0  02:24        0.48
  YS02006553           JUNCTION     0.61     0.73     7.01     0  03:01        0.73
  YS02006561           JUNCTION     0.10     0.15     6.81     0  03:01        0.15
  YS02006556           JUNCTION     0.59     0.70     7.01     0  03:01        0.70
  YS02006558           JUNCTION     0.63     0.74     7.01     0  03:01        0.74
  YS02001783           JUNCTION     0.17     0.26     6.40     0  03:01        0.26
  YS02001784           JUNCTION     0.21     0.30     6.37     0  03:02        0.30
  YS02001786           JUNCTION     0.18     0.25     6.28     0  03:02        0.25
  YS02001788           JUNCTION     0.12     0.18     6.16     0  03:02        0.18
  YS02001790           JUNCTION     0.15     0.22     5.87     0  03:02        0.22
  YS02001791           JUNCTION     0.10     0.15     5.62     0  03:02        0.15
  YS02001793           JUNCTION     0.07     0.10     4.93     0  03:03        0.10
  WS02004139           JUNCTION     0.30     0.45     5.36     0  01:10        0.45
  WSC                  OUTFALL      0.20     0.26     0.93     0  03:11        0.26
  3                    OUTFALL      0.02     0.13     6.13     0  00:00        0.10
  4                    OUTFALL      0.00     0.00     7.00     0  00:00        0.00
  5                    OUTFALL      0.00     0.00     5.00     0  00:00        0.00
  JK-storage           STORAGE      0.04     3.00     3.80     0  00:00        2.70
  CC-storage           STORAGE      0.01     0.04     7.04     0  03:48        0.04
  XR-storage           STORAGE      7.62     7.72     5.72     0  00:51        7.72
  
  
  *******************
  Node Inflow Summary
  *******************
  
  -------------------------------------------------------------------------------------------------
                                  Maximum  Maximum                  Lateral       Total        Flow
                                  Lateral    Total  Time of Max      Inflow      Inflow     Balance
                                   Inflow   Inflow   Occurrence      Volume      Volume       Error
  Node                 Type           LPS      LPS  days hr:min    10^6 ltr    10^6 ltr     Percent
  -------------------------------------------------------------------------------------------------
  WS02001211           JUNCTION      7.35   102.67     0  01:10       0.207        0.64       1.690
  WS02001212           JUNCTION      0.00   102.67     0  01:10           0       0.631       0.483
  WS02001213           JUNCTION      0.00   102.67     0  01:10           0       0.635       1.867
  WS02003069           JUNCTION      0.32   407.86     0  03:09     0.00902        5.88       0.194
  WS02003072           JUNCTION      0.00   407.84     0  03:10           0        5.87       0.277
  WS02003073           JUNCTION      1.82   409.64     0  03:10      0.0514         5.9       0.272
  WS02003060           JUNCTION     16.53   407.56     0  03:08       0.466         5.9       0.186
  WS02003066           JUNCTION      0.00   384.10     0  03:06           0        4.83       0.059
  WS02003059           JUNCTION      0.00   102.67     0  01:10           0       0.642       3.672
  WS02003067           JUNCTION      0.00   384.10     0  03:05           0        4.84       0.137
  WS02004401           JUNCTION      0.00   385.20     0  03:00           0        5.01       0.310
  WS02004402           JUNCTION      0.00   385.01     0  03:00           0        4.99       0.303
  WS02004403           JUNCTION      0.00   384.90     0  03:01           0        4.98       0.284
  WS02004404           JUNCTION      0.16   385.01     0  03:01     0.00457        4.97       0.224
  WS02004406           JUNCTION      0.00   385.01     0  03:01           0        4.94       0.550
  WS02004409           JUNCTION      0.00   384.99     0  03:02           0        4.91       0.187
  WS02004410           JUNCTION      0.00   384.65     0  03:03           0         4.9       0.225
  WS02004411           JUNCTION      0.00   384.39     0  03:04           0        4.89       0.244
  WS02004412           JUNCTION      0.00   384.23     0  03:04           0        4.88       0.282
  WS02004413           JUNCTION      0.00   384.13     0  03:05           0        4.86       0.445
  WS02004405           JUNCTION      0.04   385.03     0  03:01     0.00107        4.96       0.335
  WS02006109           JUNCTION      1.23   384.89     0  02:56      0.0347        5.08       0.339
  WS02006110           JUNCTION      0.00   384.89     0  02:56           0        5.06       0.280
  WS02006111           JUNCTION      0.00   392.54     0  02:57           0        5.04       0.052
  WS02006112           JUNCTION      4.68   387.23     0  02:57      0.0149        5.05       0.451
  WS02006113           JUNCTION      0.00   384.92     0  02:56           0        5.05       0.107
  WS02006115           JUNCTION      0.00   386.11     0  02:58           0        5.03       0.250
  WS02006116           JUNCTION      0.00   385.53     0  02:59           0        5.02       0.249
  WS02006230           JUNCTION     10.28   317.90     0  03:06        0.29        4.47       0.203
  WS02006231           JUNCTION      0.00   307.37     0  03:06           0        4.19       0.158
  WS02006232           JUNCTION      0.00   307.24     0  03:05           0         4.2       0.268
  WS02006234           JUNCTION      0.00   307.12     0  03:04           0         4.2       0.073
  WS02006235           JUNCTION      0.00   307.07     0  03:04           0        4.24       0.170
  WS02006238           JUNCTION      0.00   211.17     0  03:03           0        2.71       0.150
  WS02006240           JUNCTION      0.00   211.10     0  03:01           0         2.7       0.182
  WS02006242           JUNCTION      0.00   211.14     0  03:00           0        2.69       0.245
  WS02006243           JUNCTION      0.00   211.31     0  02:57           0        2.69       0.080
  WS02006245           JUNCTION      0.00   211.55     0  02:54           0        2.69       0.131
  WS02006247           JUNCTION      0.00   211.95     0  02:52           0        2.69       0.112
  WS02006248           JUNCTION      0.00   212.48     0  02:50           0        2.69       0.046
  WS02006249           JUNCTION      0.00   212.98     0  02:50           0         2.7       0.194
  WS02006239           JUNCTION      0.00   211.12     0  03:02           0         2.7       0.195
  WS02006251           JUNCTION      0.08   213.57     0  02:48     0.00217        2.72       0.141
  WS02006252           JUNCTION      0.00   200.00     0  02:47           0        2.62       0.009
  WS02006253           JUNCTION      0.73    19.50     0  02:25     0.00194      0.0948       1.333
  WS02006256           JUNCTION      0.00   300.00     0  00:00           0        1.84       0.126
  WS02004138           JUNCTION      0.00    95.00     0  00:00           0       0.428       0.187
  WS02004407           JUNCTION      0.00   385.00     0  03:02           0        4.91       0.088
  WS02006228           JUNCTION      0.00   383.67     0  02:56           0        5.05       0.213
  WS02006229           JUNCTION      0.00   383.68     0  02:56           0        5.06       0.178
  WS02006280           JUNCTION      0.00   107.90     0  02:25           0       0.599       0.012
  WS02006284           JUNCTION      0.10   107.90     0  02:25      0.0027         0.6       0.192
  WS02006287           JUNCTION      0.00   107.81     0  02:25           0       0.598       0.116
  WSF200               JUNCTION      0.00   384.10     0  03:06           0        4.83       0.044
  HS02004901           JUNCTION      5.81     5.81     0  02:14       0.018      0.0181      10.735
  HS02004881           JUNCTION      2.33    18.98     0  02:25     0.00783      0.0809       0.238
  HS02004876           JUNCTION      3.65    16.96     0  02:23      0.0149      0.0736       0.705
  HS02004870           JUNCTION      4.09    13.40     0  02:23      0.0148      0.0588       0.179
  HS02004862           JUNCTION      3.40     9.62     0  02:24      0.0203      0.0441       0.377
  HS02004856           JUNCTION      3.03     6.26     0  02:23      0.0111      0.0253       6.032
  HS02004852           JUNCTION      0.00     3.45     0  02:24           0      0.0142       0.332
  HS02004848           JUNCTION      6.50     6.50     0  02:25      0.0347      0.0347       0.119
  HS02004842           JUNCTION      0.00     4.47     0  00:03           0      0.0336      63.069
  HS02004837           JUNCTION     12.86    15.79     0  02:21       0.205       0.225       0.362
  HS02004830           JUNCTION      0.15    15.93     0  02:22     0.00423       0.216       0.574
  HS02004824           JUNCTION      7.25    23.09     0  02:26      0.0457        0.26       0.207
  HS02004817           JUNCTION      0.60    23.69     0  02:26      0.0169       0.277       6.408
  HS02004807           JUNCTION      7.71    30.67     0  02:25      0.0272       0.287       1.492
  HS02004802           JUNCTION      0.00    30.70     0  02:26           0       0.283       1.452
  HS02004799           JUNCTION      5.91    65.72     0  02:22       0.022       0.288       0.782
  HS02004792           JUNCTION     26.68    60.04     0  02:22      0.0997       0.266       0.157
  HS02004788           JUNCTION      9.67    35.10     0  02:23      0.0776       0.168       0.235
  HS02004785           JUNCTION      0.15    25.88     0  02:23     0.00423      0.0921       0.520
  HS02004777           JUNCTION      0.03    26.26     0  02:20    0.000846      0.0923       5.931
  HS02004770           JUNCTION     22.54    27.34     0  02:18      0.0767      0.0931       3.443
  HS02004480           JUNCTION      0.00    77.33     0  02:23           0       0.331       0.203
  HS02004479           JUNCTION      0.00    11.87     0  02:25           0      0.0559       1.319
  HS02004478           JUNCTION      0.00   107.81     0  02:24           0       0.599       0.111
  YS02001745           JUNCTION     33.98    33.98     0  03:01        0.41        0.41       0.080
  YS02001748           JUNCTION      0.04    34.02     0  03:01     0.00127       0.411       0.039
  YS02001751           JUNCTION      0.01    60.50     0  04:36     0.00031       0.521       0.265
  YS02001754           JUNCTION      0.26   190.52     0  04:43     0.00733        0.93       1.173
  YS02001762           JUNCTION      0.00    50.85     0  03:04           0       0.543       2.558
  YS02001765           JUNCTION      0.00    71.37     0  04:32           0       0.532       2.767
  YS02001767           JUNCTION      0.54    59.06     0  04:56      0.0151       0.536       3.622
  YS02001770           JUNCTION     44.48    53.87     0  02:37       0.494       0.513       3.231
  YS02001774           JUNCTION      0.00    27.74     0  02:34           0      0.0826      21.314
  YS02001779           JUNCTION      0.01    14.93     0  02:34    0.000141       0.049      11.413
  YS02001882           JUNCTION      0.00     2.12     0  02:10           0     0.00319      77.046
  YS02001884           JUNCTION      0.00     6.63     0  02:10           0       0.013      48.455
  YS02001759           JUNCTION     43.62   101.06     0  03:03       0.464        0.98       1.612
  YS02001887           JUNCTION     58.25    58.25     0  02:50       0.571       0.577       1.137
  YS02001890           JUNCTION      0.00    58.04     0  02:52           0       0.559       1.295
  YS02001898           JUNCTION      0.00    57.81     0  02:55           0       0.549       0.317
  YS02001901           JUNCTION      0.00    57.89     0  02:56           0       0.549       0.893
  YS02001904           JUNCTION      0.00    57.58     0  02:57           0       0.548       0.834
  YS02001907           JUNCTION      0.00   104.76     0  03:02           0        1.17       1.829
  YS02001910           JUNCTION      0.00    47.45     0  03:00           0        0.63       1.503
  YS02001915           JUNCTION     30.73    47.21     0  03:01       0.355       0.634       0.598
  YS02001918           JUNCTION      0.00    16.64     0  03:04           0        0.28       0.279
  YS02001619           JUNCTION     29.79    29.79     0  03:01       0.349       0.349       0.148
  YS02001629           JUNCTION      0.00    36.01     0  02:42           0       0.333       1.660
  YS02001641           JUNCTION      0.00    66.05     0  03:09           0       0.703       1.785
  YS02001644           JUNCTION     32.24    95.48     0  03:08       0.393        1.08       1.411
  YS02001652           JUNCTION      0.00    59.28     0  04:39           0       0.468       1.923
  YS02001655           JUNCTION      0.15    41.10     0  02:53     0.00434        0.42       0.729
  YS02001920           JUNCTION      2.87    16.65     0  03:02      0.0809       0.281       0.587
  YS02001923           JUNCTION      0.04    13.78     0  03:02     0.00106       0.201       0.104
  YS02001926           JUNCTION      0.05    13.79     0  03:01     0.00147       0.201       0.759
  YS02001929           JUNCTION     13.74    13.74     0  03:01         0.2         0.2       0.098
  YS02001658           JUNCTION      0.00    40.95     0  02:53           0        0.41       0.048
  YS02001661           JUNCTION      0.00    40.95     0  02:53           0        0.41       0.174
  YS02001664           JUNCTION     40.95    40.95     0  02:53        0.41        0.41       0.034
  YS02001622           JUNCTION      0.00    30.83     0  02:51           0       0.348       0.686
  YS02001633           JUNCTION     32.80    68.38     0  02:43       0.405       0.726       2.518
  YS02001649           JUNCTION      0.00   150.15     0  03:10           0        1.49       1.567
  YS02001757           JUNCTION      0.00   346.64     0  04:24           0        3.09       2.222
  YS02001895           JUNCTION      0.00    57.82     0  02:55           0       0.552       0.552
  YS02001625           JUNCTION      0.00    33.39     0  02:52           0       0.346       4.306
  YS02163301           JUNCTION      0.00    40.28     0  02:43           0       0.334       3.687
  YS02163601           JUNCTION      0.11    69.39     0  02:42      0.0031       0.707       2.760
  YS02164001           JUNCTION      0.00    66.96     0  03:09           0       0.698       1.665
  YS02001647           JUNCTION      0.00    98.13     0  03:10           0        1.05       1.149
  YSB1154              JUNCTION      6.50     6.50     0  02:19      0.0266      0.0281       5.425
  YSB6556              JUNCTION      0.00     6.39     0  02:23           0      0.0291       4.456
  YSB1174              JUNCTION      6.64     6.64     0  02:14      0.0195      0.0205       6.671
  YSB1171              JUNCTION      0.00    11.89     0  02:22           0      0.0552      12.909
  YS02006553           JUNCTION      0.00   104.94     0  03:03           0        1.16       1.193
  YS02006561           JUNCTION      0.00   153.50     0  03:01           0        1.63       0.031
  YS02006556           JUNCTION      0.00   105.08     0  03:03           0        1.16       0.853
  YS02006558           JUNCTION     49.27   153.52     0  03:01        0.52        1.66       0.256
  YS02001783           JUNCTION      0.00   153.49     0  03:01           0        1.63       0.071
  YS02001784           JUNCTION      1.06   154.54     0  03:01      0.0299        1.66       0.120
  YS02001786           JUNCTION      0.06   154.58     0  03:02     0.00159        1.66       0.117
  YS02001788           JUNCTION      0.07   154.64     0  03:02       0.002        1.66       0.064
  YS02001790           JUNCTION      0.15   154.79     0  03:02     0.00437        1.66       0.084
  YS02001791           JUNCTION      0.00   154.79     0  03:02           0        1.66       0.041
  YS02001793           JUNCTION      0.00   154.79     0  03:03           0        1.66       0.018
  WS02004139           JUNCTION      0.32    95.32     0  00:11     0.00905       0.441       2.642
  WSC                  OUTFALL       0.00   409.60     0  03:11           0        5.89       0.000
  3                    OUTFALL       0.00   250.55     0  00:00           0       0.288       0.000
  4                    OUTFALL       0.00     0.00     0  00:00           0           0       0.000 ltr
  5                    OUTFALL       0.00     0.00     0  00:00           0           0       0.000 ltr
  JK-storage           STORAGE       0.00   154.79     0  03:03           0        1.81      -1.536
  CC-storage           STORAGE       0.00   247.91     0  03:06           0        2.62      -0.001
  XR-storage           STORAGE     255.73   255.73     0  03:00        6.32        6.92       0.001
  
  
  **********************
  Node Surcharge Summary
  **********************
  
  No nodes were surcharged.
  
  
  *********************
  Node Flooding Summary
  *********************
  
  Flooding refers to all water that overflows a node, whether it ponds or not.
  --------------------------------------------------------------------------
                                                             Total   Maximum
                                 Maximum   Time of Max       Flood    Ponded
                        Hours       Rate    Occurrence      Volume     Depth
  Node                 Flooded       LPS   days hr:min    10^6 ltr    Meters
  --------------------------------------------------------------------------
  XR-storage              6.97    255.73      0  03:00       5.565     0.000
  
  
  **********************
  Storage Volume Summary
  **********************
  
  --------------------------------------------------------------------------------------------------
                         Average     Avg  Evap Exfil       Maximum     Max    Time of Max    Maximum
                          Volume    Pcnt  Pcnt  Pcnt        Volume    Pcnt     Occurrence    Outflow
  Storage Unit           1000 m3    Full  Loss  Loss       1000 m3    Full    days hr:min        LPS
  --------------------------------------------------------------------------------------------------
  JK-storage               0.002       1     0     0         0.151      52       0  00:00     300.00
  CC-storage               0.025       0     0     0         0.099       1       0  03:48     200.00
  XR-storage               0.915      99     0     0         0.926     100       0  00:51      95.00
  
  
  ***********************
  Outfall Loading Summary
  ***********************
  
  -----------------------------------------------------------
                         Flow       Avg       Max       Total
                         Freq      Flow      Flow      Volume
  Outfall Node           Pcnt       LPS       LPS    10^6 ltr
  -----------------------------------------------------------
  WSC                   99.99    261.71    409.60       5.885
  3                     40.92     38.15    250.55       0.288
  4                      0.00      0.00      0.00       0.000
  5                      0.00      0.00      0.00       0.000
  -----------------------------------------------------------
  System                35.23    299.85    465.12       6.173
  
  
  ********************
  Link Flow Summary
  ********************
  
  -----------------------------------------------------------------------------
                                 Maximum  Time of Max   Maximum    Max/    Max/
                                  |Flow|   Occurrence   |Veloc|    Full    Full
  Link                 Type          LPS  days hr:min     m/sec    Flow   Depth
  -----------------------------------------------------------------------------
  WS02003066WSF200     CONDUIT    384.10     0  03:06      2.62    0.06    0.19
  WS02006287WS02006284 CONDUIT    107.80     0  02:25      1.29    0.05    0.16
  WS02006284WS02006280 CONDUIT    107.90     0  02:25      1.54    0.05    0.14
  WS02006280WS02006229 CONDUIT    107.90     0  02:25      2.47    0.02    0.10
  WS02006229WS02006228 CONDUIT    383.67     0  02:56      0.83    1.27    0.98
  WS02006256WS02006235 CONDUIT    166.25     0  00:01      2.58    1.76    1.00
  WS02006253WS02006251 CONDUIT     30.13     0  04:49      0.38    0.09    0.59
  WS02006252WS02006251 CONDUIT    200.16     0  02:47      2.11    0.73    0.76
  WS02006251WS02006249 CONDUIT    212.98     0  02:50      0.92    0.61    0.59
  WS02006249WS02006248 CONDUIT    212.48     0  02:50      0.99    1.16    0.56
  WS02006248WS02006247 CONDUIT    211.95     0  02:52      0.95    0.46    0.58
  WS02006247WS02006245 CONDUIT    211.55     0  02:54      0.91    1.68    0.61
  WS02006245WS02006243 CONDUIT    211.31     0  02:57      0.95    0.63    0.61
  WS02006243WS02006242 CONDUIT    211.14     0  03:00      0.76    0.45    0.70
  WS02006242WS02006240 CONDUIT    211.10     0  03:01      0.69    0.84    0.77
  WS02006240WS02006239 CONDUIT    211.12     0  03:02      0.71    0.66    0.75
  WS02006239WS02006238 CONDUIT    211.17     0  03:03      0.67    0.68    0.84
  WS02006238WS02006235 CONDUIT    211.21     0  03:03      1.25    0.47    0.87
  WS02006235WS02006234 CONDUIT    307.12     0  03:04      0.93    3.24    0.81
  WS02006234WS02006232 CONDUIT    307.24     0  03:05      1.13    0.62    0.87
  WS02006232WS02006231 CONDUIT    307.37     0  03:06      0.92    0.64    0.82
  WS02006231WS02006230 CONDUIT    307.63     0  03:06      1.28    4.67    0.65
  WS02006230WS02006229 CONDUIT    318.47     0  03:08      0.86    7.09    1.00
  WS02006228WS02006109 CONDUIT    383.66     0  02:56      0.76    1.68    0.99
  WS02006116WS02004401 CONDUIT    385.20     0  03:00      0.73    0.53    0.72
  WS02006115WS02006116 CONDUIT    385.53     0  02:59      0.79    0.49    0.63
  WS02006113WS02006111 CONDUIT    392.54     0  02:57      2.19    0.47    0.39
  WS02006112WS02006115 CONDUIT    386.11     0  02:58      0.61    0.23    0.76
  WS02006111WS02006112 CONDUIT    385.48     0  02:57      1.32    0.18    0.64
  WS02006110WS02006113 CONDUIT    384.92     0  02:56      0.97    0.35    0.73
  WS02006109WS02006110 CONDUIT    384.89     0  02:56      0.79    0.74    0.93
  WS02004411WS02004412 CONDUIT    384.23     0  03:04      0.79    0.55    0.60
  WS02004401WS02004402 CONDUIT    385.01     0  03:00      0.77    0.46    0.75
  WS02004413WS02003067 CONDUIT    384.10     0  03:05      0.93    0.16    0.52
  WS02004412WS02004413 CONDUIT    384.13     0  03:05      0.67    0.26    0.69
  WS02004410WS02004411 CONDUIT    384.39     0  03:04      0.81    0.53    0.58
  WS02004409WS02004410 CONDUIT    384.65     0  03:03      0.85    0.50    0.56
  WS02004407WS02004409 CONDUIT    384.99     0  03:02      1.31    0.14    0.40
  WS02004406WS02004407 CONDUIT    385.00     0  03:02      0.85    0.17    0.56
  WS02004405WS02004406 CONDUIT    385.01     0  03:01      0.66    0.76    0.86
  WS02004404WS02004405 CONDUIT    384.99     0  03:01      0.84    3.77    0.86
  WS02004403WS02004404 CONDUIT    384.85     0  03:01      0.74    0.28    0.82
  WS02004402WS02004403 CONDUIT    384.90     0  03:01      0.75    0.55    0.77
  WS02004139WS02001211 CONDUIT     95.32     0  01:10      0.53    0.12    0.36
  WS02004138WS02004139 CONDUIT     95.00     0  00:11      2.39    0.02    0.25
  WS02003067WS02003066 CONDUIT    384.10     0  03:06      1.00    0.12    0.37
  WS02001213WS02003059 CONDUIT    102.67     0  01:10      0.41    0.17    0.52
  WS02001212WS02001213 CONDUIT    102.67     0  01:10      0.81    0.16    0.22
  WS02001211WS02001212 CONDUIT    102.67     0  01:10      0.37    0.08    0.39
  WS02003072WS02003073 CONDUIT    407.82     0  03:10      1.29    0.88    0.32
  WS02003069WS02003072 CONDUIT    407.84     0  03:10      1.24    0.20    0.33
  WS02003060WS02003069 CONDUIT    407.54     0  03:09      1.52    0.16    0.29
  WS02003059WS02003060 CONDUIT    102.67     0  01:10      0.56    0.07    0.45
  HS02004901HS02004770 CONDUIT      5.09     0  02:23      0.03    0.02    0.25
  HS02004876HS02004881 CONDUIT     16.92     0  02:25      0.35    0.18    0.07
  HS02004870HS02004876 CONDUIT     13.39     0  02:24      0.25    0.01    0.08
  HS02004842HS02004848 CONDUIT      3.22     0  02:34      0.02    0.00    0.26
  HS02004837HS02004842 CONDUIT      4.47     0  00:03      0.41    0.00    0.27
  HS02004830HS02004837 CONDUIT     15.78     0  02:22      0.37    0.02    0.06
  HS02004824HS02004830 CONDUIT     15.93     0  02:23      0.41    0.02    0.05
  HS02004817HS02004824 CONDUIT     23.09     0  02:26      0.17    0.01    0.36
  HS02004770HS02004777 CONDUIT     26.23     0  02:20      0.14    0.05    0.27
  HS02004799HS02004480 CONDUIT     65.59     0  02:23      0.42    0.08    0.23
  HS02004792HS02004799 CONDUIT     60.01     0  02:22      0.48    0.04    0.18
  HS02004788HS02004792 CONDUIT     35.07     0  02:24      0.65    0.02    0.08
  HS02004785HS02004788 CONDUIT     25.78     0  02:24      0.37    0.19    0.10
  HS02004777HS02004785 CONDUIT     25.73     0  02:23      0.18    0.03    0.21
  HS02004480HS02004478 CONDUIT     77.31     0  02:24      0.72    0.33    0.15
  HS02004479HS02004480 CONDUIT     11.97     0  02:26      0.16    0.01    0.23
  HS02004862HS02004870 CONDUIT      9.59     0  02:25      0.35    0.01    0.04
  HS02004848HS02004852 CONDUIT      3.45     0  02:24      0.22    0.00    0.02
  HS02004856HS02004862 CONDUIT      6.24     0  02:24      0.25    0.01    0.04
  HS02004852HS02004856 CONDUIT      3.42     0  02:26      0.06    0.00    0.08
  HS02004802HS02004478 CONDUIT     30.81     0  02:28      0.22    0.03    0.20
  HS02004478WS02006287 CONDUIT    107.81     0  02:25      0.98    0.03    0.12
  HS02004817HS02004807 CONDUIT     23.86     0  02:29      0.08    0.01    0.45
  HS02004807HS02004802 CONDUIT     30.70     0  02:26      0.19    0.06    0.24
  YS02001759YS02001757 CONDUIT     97.81     0  03:03      0.14    0.07    0.86
  YS02001762YS02001759 CONDUIT     72.57     0  04:31      0.17    0.08    0.79
  YS02001765YS02001762 CONDUIT     50.85     0  03:04      0.22    0.05    0.75
  YS02001770YS02001767 CONDUIT     56.53     0  02:37      0.31    0.22    0.68
  YS02001774YS02001770 CONDUIT     27.74     0  02:34      0.14    0.02    0.69
  YS02001779YS02001774 CONDUIT     14.92     0  02:34      0.06    0.01    0.61
  YS02001649YS02001757 CONDUIT    144.89     0  03:00      0.21    0.09    0.84
  YS02001767YS02001765 CONDUIT     71.37     0  04:32      0.26    0.09    0.70
  YS02006561YS02001783 CONDUIT    153.49     0  03:01      1.48    0.08    0.26
  YS02001783YS02001784 CONDUIT    153.48     0  03:01      0.98    0.21    0.35
  YS02001784YS02001785 CONDUIT    154.52     0  03:02      1.01    0.36    0.34
  YS02001788YS02001790 CONDUIT    154.64     0  03:02      1.55    0.11    0.25
  YS02001790YS02001791 CONDUIT    154.79     0  03:02      1.77    0.17    0.23
  YS02001791YS02001793 CONDUIT    154.79     0  03:03      3.18    0.07    0.15
  YS02001910YS02001907 CONDUIT     47.41     0  03:01      0.49    0.03    0.61
  YS02001786YS02001788 CONDUIT    154.57     0  03:02      1.40    0.30    0.27
  YS02001915YS02001910 CONDUIT     47.45     0  03:00      0.44    0.02    0.40
  YS02001918YS02001915 CONDUIT     16.63     0  03:04      0.44    0.01    0.18
  YS02001923YS02001920 CONDUIT     13.78     0  03:02      0.30    0.01    0.11
  YS02001926YS02001923 CONDUIT     13.74     0  03:02      0.36    0.02    0.09
  YS02001929YS02001926 CONDUIT     13.74     0  03:01      0.37    0.01    0.09
  YS02001920YS02001918 CONDUIT     16.64     0  03:04      0.34    0.02    0.11
  YS02001629YS02163301 CONDUIT     40.28     0  02:43      0.09    0.05    0.64
  YS02001619YS02001622 CONDUIT     30.83     0  02:51      0.54    0.05    0.26
  YS02001622YS02001625 CONDUIT     33.39     0  02:52      0.18    0.02    0.42
  YS02001625YS02001629 CONDUIT     36.01     0  02:42      0.17    0.02    0.40
  YS02163301YS02001633 CONDUIT     37.52     0  02:43      0.09    0.04    0.68
  YS02163601YS02164001 CONDUIT     66.96     0  03:09      0.12    0.06    0.74
  YS02164001YS02001641 CONDUIT     66.05     0  03:09      0.11    0.09    0.72
  YS02001641YS02001644 CONDUIT     64.67     0  03:08      0.12    0.21    0.73
  YS02001647YS02001649 CONDUIT     98.73     0  03:10      0.18    0.05    0.67
  YS02006553YS02006556 CONDUIT    105.08     0  03:03      0.18    0.09    0.69
  YS02006556YS02006558 CONDUIT    105.15     0  03:03      0.17    0.08    0.72
  YSB6556YSB1171       CONDUIT      6.44     0  02:27      0.03    0.01    0.49
  YS02001907YS02006553 CONDUIT    104.94     0  03:03      0.15    0.12    0.79
  YS02006558YS02006561 CONDUIT    153.50     0  03:01      1.90    0.34    0.33
  YS02001633YS02163601 CONDUIT     69.28     0  02:42      0.12    0.07    0.73
  YS02001644YS02001647 CONDUIT     98.13     0  03:10      0.18    0.06    0.65
  YS02001745YS02001748 CONDUIT     33.97     0  03:01      1.15    0.01    0.08
  YS02001748YS02001751 CONDUIT     34.01     0  03:01      0.92    0.02    0.19
  YS02001751YS02001754 CONDUIT     83.26     0  04:27      0.85    0.04    0.40
  YS02001754YS02001757 CONDUIT    152.91     0  04:44      0.33    0.06    0.74
  YS02001882YS02001884 CONDUIT      2.12     0  02:10      0.06    0.00    0.33
  YS02001884YS02001887 CONDUIT      6.63     0  02:10      0.05    0.01    0.42
  YS02001890YS02001895 CONDUIT     57.82     0  02:55      0.20    0.03    0.40
  YS02001895YS02001898 CONDUIT     57.81     0  02:55      0.42    0.10    0.26
  YS02001898YS02001901 CONDUIT     57.89     0  02:56      0.25    0.04    0.34
  YS02001901YS02001904 CONDUIT     57.58     0  02:57      0.20    0.09    0.39
  YS02001904YS02001907 CONDUIT     57.79     0  03:03      0.13    0.02    0.55
  YS02001887YS02001890 CONDUIT     58.04     0  02:52      0.16    0.10    0.48
  YS02001652YS02001649 CONDUIT     57.71     0  04:32      0.28    0.03    0.67
  YS02001655YS02001652 CONDUIT     48.78     0  03:02      0.91    0.02    0.43
  YS02001658YS02001655 CONDUIT     40.95     0  02:53      1.05    0.02    0.20
  YS02001661YS02001658 CONDUIT     40.95     0  02:53      1.17    0.02    0.09
  YS02001664YS02001661 CONDUIT     40.95     0  02:53      0.78    0.01    0.12
  YSB1154YSB6556       CONDUIT      6.39     0  02:23      0.19    0.01    0.38
  YSB1174YSB1171       CONDUIT      6.04     0  02:16      0.03    0.01    0.50
  YSB1171HS02004479    CONDUIT     11.87     0  02:25      0.54    0.01    0.38
  HS02004881HS02006253 CONDUIT     18.97     0  02:25      1.26    0.00    0.07
  YS02001793JiankangQianchi CONDUIT    154.79     0  03:03     10.63    0.01    0.50
  YS02001757CaochengTiaoxuchi CONDUIT    247.91     0  03:06      0.71    0.11    0.47
  WSF200WS02003060     CONDUIT    384.10     0  03:06      1.91    0.09    0.24
  1                    CONDUIT    409.60     0  03:11      2.59    0.14    0.26
  2                    CONDUIT      0.00     0  00:00      0.00    0.00    0.00
  3                    CONDUIT    250.55     0  00:00      8.26    0.40    0.46
  4                    CONDUIT      0.00     0  00:00      0.00    0.00    0.00
  CC-Pump-1            PUMP       200.00     0  02:47              1.00
  CC-Pump-2            PUMP         0.00     0  00:00              0.00
  JK-Pump-1            PUMP       154.79     0  03:03              0.52
  JK-Pump-2            PUMP       300.00     0  00:00              1.00
  XR-Pump-1            PUMP         0.00     0  00:00              0.00
  XR-Pump-2            PUMP        95.00     0  00:00              1.00
  XR-Pump-3            PUMP         0.00     0  00:00              0.00
  XR-Pump-4            PUMP         0.00     0  00:00              0.00
  
  
  ***************************
  Flow Classification Summary
  ***************************
  
  -------------------------------------------------------------------------------------
                      Adjusted    ---------- Fraction of Time in Flow Class ---------- 
                       /Actual         Up    Down  Sub   Sup   Up    Down  Norm  Inlet 
  Conduit               Length    Dry  Dry   Dry   Crit  Crit  Crit  Crit  Ltd   Ctrl  
  -------------------------------------------------------------------------------------
  WS02003066WSF200        1.00   0.08  0.00  0.00  0.00  0.92  0.00  0.00  0.76  0.00
  WS02006287WS02006284    1.00   0.05  0.02  0.00  0.73  0.20  0.00  0.00  0.81  0.00
  WS02006284WS02006280    1.00   0.06  0.00  0.00  0.00  0.00  0.00  0.94  0.00  0.00
  WS02006280WS02006229    1.00   0.06  0.00  0.00  0.00  0.00  0.00  0.94  0.00  0.00
  WS02006229WS02006228    1.00   0.00  0.00  0.00  0.98  0.00  0.00  0.02  0.00  0.00
  WS02006256WS02006235    1.00   0.00  0.00  0.00  1.00  0.00  0.00  0.00  0.00  0.00
  WS02006253WS02006251    1.00   0.04  0.01  0.00  0.95  0.00  0.00  0.00  0.00  0.00
  WS02006252WS02006251    1.00   0.11  0.00  0.00  0.00  0.00  0.89  0.00  0.00  0.00
  WS02006251WS02006249    1.00   0.00  0.00  0.00  1.00  0.00  0.00  0.00  0.31  0.00
  WS02006249WS02006248    1.00   0.00  0.03  0.00  0.88  0.00  0.09  0.00  0.00  0.00
  WS02006248WS02006247    1.00   0.03  0.00  0.00  0.97  0.00  0.00  0.00  0.20  0.00
  WS02006247WS02006245    1.00   0.03  0.00  0.00  0.97  0.00  0.00  0.00  0.00  0.00
  WS02006245WS02006243    1.00   0.02  0.01  0.00  0.93  0.00  0.00  0.05  0.01  0.00
  WS02006243WS02006242    1.00   0.01  0.00  0.00  0.99  0.00  0.00  0.00  0.35  0.00
  WS02006242WS02006240    1.00   0.00  0.00  0.00  1.00  0.00  0.00  0.00  0.00  0.00
  WS02006240WS02006239    1.00   0.00  0.00  0.00  0.94  0.00  0.00  0.06  0.01  0.00
  WS02006239WS02006238    1.00   0.00  0.00  0.00  1.00  0.00  0.00  0.00  0.01  0.00
  WS02006238WS02006235    1.00   0.00  0.00  0.00  1.00  0.00  0.00  0.00  0.00  0.00
  WS02006235WS02006234    1.00   0.00  0.00  0.00  0.94  0.00  0.06  0.00  0.00  0.00
  WS02006234WS02006232    1.00   0.00  0.00  0.00  1.00  0.00  0.00  0.00  0.18  0.00
  WS02006232WS02006231    1.00   0.00  0.00  0.00  0.99  0.00  0.01  0.00  0.00  0.00
  WS02006231WS02006230    1.00   0.00  0.00  0.00  0.21  0.00  0.78  0.00  0.00  0.00
  WS02006230WS02006229    1.00   0.00  0.00  0.00  0.98  0.00  0.00  0.02  0.01  0.00
  WS02006228WS02006109    1.00   0.00  0.00  0.00  0.99  0.00  0.00  0.00  0.00  0.00
  WS02006116WS02004401    1.00   0.03  0.00  0.00  0.97  0.00  0.00  0.00  0.00  0.00
  WS02006115WS02006116    1.00   0.03  0.00  0.00  0.96  0.00  0.00  0.01  0.00  0.00
  WS02006113WS02006111    1.00   0.03  0.00  0.00  0.00  0.97  0.00  0.00  0.14  0.00
  WS02006112WS02006115    1.00   0.03  0.00  0.00  0.97  0.00  0.00  0.00  0.00  0.00
  WS02006111WS02006112    1.00   0.03  0.00  0.00  0.97  0.00  0.00  0.00  0.98  0.00
  WS02006110WS02006113    1.00   0.01  0.01  0.00  0.98  0.00  0.00  0.00  0.00  0.00
  WS02006109WS02006110    1.00   0.00  0.01  0.00  0.98  0.00  0.01  0.00  0.00  0.00
  WS02004411WS02004412    1.00   0.05  0.00  0.00  0.95  0.00  0.00  0.00  0.00  0.00
  WS02004401WS02004402    1.00   0.03  0.00  0.00  0.97  0.00  0.00  0.00  0.00  0.00
  WS02004413WS02003067    1.00   0.05  0.02  0.00  0.00  0.00  0.93  0.00  0.00  0.00
  WS02004412WS02004413    1.00   0.05  0.00  0.00  0.95  0.00  0.00  0.00  0.03  0.00
  WS02004410WS02004411    1.00   0.05  0.00  0.00  0.95  0.00  0.00  0.00  0.04  0.00
  WS02004409WS02004410    1.00   0.05  0.00  0.00  0.95  0.00  0.00  0.00  0.04  0.00
  WS02004407WS02004409    1.00   0.05  0.00  0.00  0.95  0.00  0.00  0.00  0.89  0.00
  WS02004406WS02004407    1.00   0.00  0.05  0.00  0.95  0.00  0.00  0.00  0.00  0.00
  WS02004405WS02004406    1.00   0.00  0.00  0.00  1.00  0.00  0.00  0.00  0.00  0.00
  WS02004404WS02004405    1.00   0.00  0.00  0.00  1.00  0.00  0.00  0.00  0.00  0.00
  WS02004403WS02004404    1.00   0.00  0.03  0.00  0.97  0.00  0.00  0.00  0.01  0.00
  WS02004402WS02004403    1.00   0.03  0.00  0.00  0.97  0.00  0.00  0.00  0.00  0.00
  WS02004139WS02001211    1.00   0.00  0.00  0.00  0.99  0.00  0.01  0.00  0.00  0.00
  WS02004138WS02004139    1.00   0.00  0.92  0.00  0.06  0.01  0.00  0.00  1.00  0.00
  WS02003067WS02003066    1.00   0.07  0.01  0.00  0.93  0.00  0.00  0.00  0.00  0.00
  WS02001213WS02003059    1.00   0.00  0.01  0.00  0.99  0.00  0.00  0.00  0.00  0.00
  WS02001212WS02001213    1.00   0.01  0.00  0.00  0.88  0.00  0.10  0.00  0.00  0.00
  WS02001211WS02001212    1.00   0.00  0.01  0.00  0.99  0.00  0.00  0.00  0.00  0.00
  WS02003072WS02003073    1.00   0.00  0.00  0.00  0.00  0.00  0.00  1.00  0.00  0.00
  WS02003069WS02003072    1.00   0.00  0.00  0.00  0.99  0.01  0.00  0.00  0.91  0.00
  WS02003060WS02003069    1.00   0.00  0.00  0.00  0.99  0.01  0.00  0.00  0.63  0.00
  WS02003059WS02003060    1.00   0.00  0.00  0.00  0.99  0.01  0.00  0.00  0.02  0.00
  HS02004901HS02004770    1.00   0.06  0.00  0.00  0.94  0.00  0.00  0.00  0.03  0.00
  HS02004876HS02004881    1.00   0.03  0.00  0.00  0.97  0.00  0.00  0.00  0.00  0.00
  HS02004870HS02004876    1.00   0.01  0.00  0.00  0.99  0.00  0.00  0.00  0.95  0.00
  HS02004842HS02004848    1.00   0.00  0.06  0.00  0.94  0.00  0.00  0.00  0.71  0.00
  HS02004837HS02004842    1.00   0.00  0.00  0.00  0.99  0.01  0.00  0.00  0.11  0.00
  HS02004830HS02004837    1.00   0.00  0.00  0.00  1.00  0.00  0.00  0.00  0.99  0.00
  HS02004824HS02004830    1.00   0.00  0.00  0.00  1.00  0.00  0.00  0.00  0.00  0.00
  HS02004817HS02004824    1.00   0.00  0.00  0.00  1.00  0.00  0.00  0.00  1.00  0.00
  HS02004770HS02004777    1.00   0.00  0.06  0.00  0.94  0.00  0.00  0.00  0.08  0.00
  HS02004799HS02004480    1.00   0.00  0.03  0.00  0.93  0.00  0.04  0.00  0.00  0.00
  HS02004792HS02004799    1.00   0.00  0.00  0.00  0.98  0.02  0.00  0.00  0.98  0.00
  HS02004788HS02004792    1.00   0.00  0.00  0.00  0.99  0.01  0.00  0.00  0.98  0.00
  HS02004785HS02004788    1.00   0.00  0.00  0.00  1.00  0.00  0.00  0.00  0.00  0.00
  HS02004777HS02004785    1.00   0.00  0.00  0.00  1.00  0.00  0.00  0.00  0.22  0.00
  HS02004480HS02004478    1.00   0.06  0.00  0.00  0.75  0.00  0.00  0.18  0.00  0.00
  HS02004479HS02004480    1.00   0.03  0.00  0.00  0.97  0.00  0.00  0.00  0.16  0.00
  HS02004862HS02004870    1.00   0.00  0.00  0.00  1.00  0.00  0.00  0.00  0.05  0.00
  HS02004848HS02004852    1.00   0.06  0.00  0.00  0.94  0.00  0.00  0.00  0.69  0.00
  HS02004856HS02004862    1.00   0.00  0.09  0.00  0.91  0.00  0.00  0.00  0.73  0.00
  HS02004852HS02004856    1.00   0.06  0.01  0.00  0.93  0.00  0.00  0.00  0.82  0.00
  HS02004802HS02004478    1.00   0.06  0.01  0.00  0.93  0.00  0.00  0.00  0.00  0.00
  HS02004478WS02006287    1.00   0.07  0.00  0.00  0.93  0.00  0.00  0.00  0.81  0.00
  HS02004817HS02004807    1.00   0.00  0.06  0.00  0.94  0.00  0.00  0.00  0.00  0.00
  HS02004807HS02004802    1.00   0.06  0.00  0.00  0.94  0.00  0.00  0.00  0.01  0.00
  YS02001759YS02001757    1.00   0.00  0.00  0.00  1.00  0.00  0.00  0.00  0.17  0.00
  YS02001762YS02001759    1.00   0.00  0.00  0.00  1.00  0.00  0.00  0.00  0.05  0.00
  YS02001765YS02001762    1.00   0.00  0.00  0.00  1.00  0.00  0.00  0.00  0.24  0.00
  YS02001770YS02001767    1.00   0.00  0.00  0.00  1.00  0.00  0.00  0.00  0.00  0.00
  YS02001774YS02001770    1.00   0.00  0.07  0.00  0.93  0.00  0.00  0.00  0.06  0.00
  YS02001779YS02001774    1.00   0.00  0.00  0.00  1.00  0.00  0.00  0.00  0.28  0.00
  YS02001649YS02001757    1.00   0.00  0.00  0.00  1.00  0.00  0.00  0.00  0.20  0.00
  YS02001767YS02001765    1.00   0.00  0.00  0.00  1.00  0.00  0.00  0.00  0.01  0.00
  YS02006561YS02001783    1.00   0.09  0.00  0.00  0.00  0.91  0.00  0.00  0.72  0.00
  YS02001783YS02001784    1.00   0.00  0.09  0.00  0.91  0.00  0.00  0.00  0.14  0.00
  YS02001784YS02001785    1.00   0.00  0.00  0.00  1.00  0.00  0.00  0.00  0.26  0.00
  YS02001788YS02001790    1.00   0.00  0.00  0.00  0.09  0.91  0.00  0.00  0.99  0.00
  YS02001790YS02001791    1.00   0.00  0.00  0.00  0.02  0.98  0.00  0.00  0.32  0.00
  YS02001791YS02001793    1.00   0.00  0.00  0.00  0.00  1.00  0.00  0.00  0.00  0.00
  YS02001910YS02001907    1.00   0.00  0.00  0.00  0.97  0.00  0.00  0.03  0.13  0.00
  YS02001786YS02001788    1.00   0.00  0.00  0.00  0.14  0.86  0.00  0.00  0.00  0.00
  YS02001915YS02001910    1.00   0.00  0.00  0.00  0.99  0.01  0.00  0.00  0.25  0.00
  YS02001918YS02001915    1.00   0.00  0.01  0.00  0.97  0.02  0.00  0.00  0.80  0.00
  YS02001923YS02001920    1.00   0.00  0.00  0.00  1.00  0.00  0.00  0.00  1.00  0.00
  YS02001926YS02001923    1.00   0.00  0.04  0.00  0.00  0.00  0.96  0.00  0.00  0.00
  YS02001929YS02001926    1.00   0.00  0.06  0.00  0.94  0.00  0.00  0.00  0.86  0.00
  YS02001920YS02001918    1.00   0.00  0.01  0.00  0.99  0.00  0.00  0.00  0.00  0.00
  YS02001629YS02163301    1.00   0.08  0.00  0.00  0.92  0.00  0.00  0.00  0.00  0.00
  YS02001619YS02001622    1.00   0.06  0.00  0.00  0.94  0.00  0.00  0.00  0.00  0.00
  YS02001622YS02001625    1.00   0.06  0.00  0.00  0.94  0.00  0.00  0.00  0.14  0.00
  YS02001625YS02001629    1.00   0.06  0.03  0.00  0.89  0.00  0.02  0.00  0.00  0.00
  YS02163301YS02001633    1.00   0.00  0.08  0.00  0.92  0.00  0.00  0.00  0.00  0.00
  YS02163601YS02164001    1.00   0.00  0.04  0.00  0.96  0.00  0.00  0.00  0.00  0.00
  YS02164001YS02001641    1.00   0.01  0.03  0.00  0.96  0.00  0.00  0.00  0.07  0.00
  YS02001641YS02001644    1.00   0.00  0.01  0.00  0.99  0.00  0.00  0.00  0.00  0.00
  YS02001647YS02001649    1.00   0.00  0.09  0.00  0.91  0.00  0.00  0.00  0.01  0.00
  YS02006553YS02006556    1.00   0.02  0.00  0.00  0.98  0.00  0.00  0.00  0.03  0.00
  YS02006556YS02006558    1.00   0.00  0.00  0.00  1.00  0.00  0.00  0.00  0.00  0.00
  YSB6556YSB1171          1.00   0.04  0.02  0.00  0.95  0.00  0.00  0.00  0.00  0.00
  YS02001907YS02006553    1.00   0.00  0.03  0.00  0.97  0.00  0.00  0.00  0.00  0.00
  YS02006558YS02006561    1.00   0.09  0.00  0.00  0.00  0.91  0.00  0.00  0.71  0.00
  YS02001633YS02163601    1.00   0.00  0.01  0.00  0.99  0.00  0.00  0.00  0.20  0.00
  YS02001644YS02001647    1.00   0.00  0.09  0.00  0.91  0.00  0.00  0.00  0.00  0.00
  YS02001745YS02001748    1.00   0.00  0.00  0.00  0.00  0.00  0.00  1.00  0.00  0.00
  YS02001748YS02001751    1.00   0.00  0.00  0.00  0.97  0.03  0.00  0.00  0.91  0.00
  YS02001751YS02001754    1.00   0.00  0.00  0.00  0.90  0.00  0.00  0.10  0.03  0.00
  YS02001754YS02001757    1.00   0.00  0.00  0.00  0.99  0.01  0.00  0.00  0.28  0.00
  YS02001882YS02001884    1.00   0.07  0.01  0.00  0.92  0.00  0.00  0.00  0.00  0.00
  YS02001884YS02001887    1.00   0.04  0.01  0.00  0.95  0.00  0.00  0.00  0.00  0.00
  YS02001890YS02001895    1.00   0.00  0.08  0.00  0.92  0.00  0.00  0.00  0.00  0.00
  YS02001895YS02001898    1.00   0.08  0.00  0.00  0.91  0.00  0.01  0.00  0.00  0.00
  YS02001898YS02001901    1.00   0.08  0.01  0.00  0.92  0.00  0.00  0.00  0.02  0.00
  YS02001901YS02001904    1.00   0.08  0.00  0.00  0.92  0.00  0.00  0.00  0.00  0.00
  YS02001904YS02001907    1.00   0.00  0.07  0.00  0.92  0.00  0.00  0.00  0.00  0.00
  YS02001887YS02001890    1.00   0.00  0.00  0.00  0.97  0.00  0.03  0.00  0.00  0.00
  YS02001652YS02001649    1.00   0.00  0.00  0.00  1.00  0.00  0.00  0.00  0.27  0.00
  YS02001655YS02001652    1.00   0.00  0.00  0.00  0.90  0.00  0.00  0.09  0.03  0.00
  YS02001658YS02001655    1.00   0.00  0.07  0.00  0.90  0.03  0.00  0.00  0.78  0.00
  YS02001661YS02001658    1.00   0.07  0.00  0.00  0.00  0.93  0.00  0.00  0.72  0.00
  YS02001664YS02001661    1.00   0.06  0.00  0.00  0.94  0.00  0.00  0.00  0.86  0.00
  YSB1154YSB6556          1.00   0.05  0.00  0.00  0.95  0.00  0.00  0.00  0.02  0.00
  YSB1174YSB1171          1.00   0.04  0.01  0.00  0.95  0.00  0.00  0.00  0.00  0.00
  YSB1171HS02004479       1.00   0.04  0.00  0.00  0.96  0.00  0.00  0.00  0.13  0.00
  HS02004881HS02006253    1.00   0.04  0.00  0.00  0.45  0.02  0.00  0.49  0.30  0.00
  YS02001793JiankangQianchi    1.00   0.00  0.00  0.00  0.03  0.97  0.00  0.00  0.02  0.00
  YS02001757CaochengTiaoxuchi    1.00   0.00  0.11  0.00  0.89  0.00  0.00  0.00  0.00  0.00
  WSF200WS02003060        1.00   0.00  0.08  0.00  0.02  0.90  0.00  0.00  0.36  0.00
  1                       1.00   0.00  0.00  0.00  0.00  1.00  0.00  0.00  0.14  0.00
  2                       1.00   1.00  0.00  0.00  0.00  0.00  0.00  0.00  0.00  0.00
  3                       1.00   0.59  0.00  0.00  0.00  0.41  0.00  0.00  0.31  0.00
  4                       1.00   1.00  0.00  0.00  0.00  0.00  0.00  0.00  0.00  0.00
  
  
  *************************
  Conduit Surcharge Summary
  *************************
  
  ----------------------------------------------------------------------------
                                                           Hours        Hours 
                         --------- Hours Full --------   Above Full   Capacity
  Conduit                Both Ends  Upstream  Dnstream   Normal Flow   Limited
  ----------------------------------------------------------------------------
  WS02006229WS02006228        0.01      0.01      0.01      2.17         0.01
  WS02006256WS02006235        5.50      5.50      6.35      1.67         0.01
  WS02006249WS02006248        0.01      0.01      0.01      2.10         0.01
  WS02006247WS02006245        0.01      0.01      0.01      2.64         0.01
  WS02006235WS02006234        0.01      0.01      0.01      5.51         0.01
  WS02006231WS02006230        0.01      0.01      0.01      5.54         0.01
  WS02006230WS02006229        0.57      1.72      0.57      5.66         0.57
  WS02006228WS02006109        0.01      0.28      0.01      2.66         0.01
  WS02006111WS02006112        0.01      0.01      2.21      0.01         0.01
  WS02006109WS02006110        0.01      0.01      0.28      0.01         0.01
  WS02004404WS02004405        0.01      0.01      0.01      5.41         0.01
  YS02001793JiankangQianchi        0.01      0.01      0.09      0.01         0.01
  
  
  ***************
  Pumping Summary
  ***************
  
  ---------------------------------------------------------------------------------------------------------
                                                  Min       Avg       Max     Total     Power    % Time Off
                        Percent   Number of      Flow      Flow      Flow    Volume     Usage    Pump Curve
  Pump                 Utilized   Start-Ups       LPS       LPS       LPS  10^6 ltr     Kw-hr    Low   High
  ---------------------------------------------------------------------------------------------------------
  CC-Pump-1               67.60           1      0.00    146.80    200.00     2.620     10.98    0.0  100.0
  CC-Pump-2                0.00           0      0.00      0.00      0.00     0.000      0.00    0.0    0.0
  JK-Pump-1               85.09           1      0.00     84.50    154.79     1.654     31.73    0.0    0.0
  JK-Pump-2               17.04           1      0.00    143.39    300.00     0.184      2.88    0.0    0.0
  XR-Pump-1                0.00           0      0.00      0.00      0.00     0.000      0.00    0.0    0.0
  XR-Pump-2               17.04           1      0.00     91.55     95.00     0.428      2.99    0.0    0.0
  XR-Pump-3                0.00           0      0.00      0.00      0.00     0.000      0.00    0.0    0.0
  XR-Pump-4                0.00           0      0.00      0.00      0.00     0.000      0.00    0.0    0.0
  

  Analysis begun on:  Thu Jan  6 10:12:04 2022
  Analysis ended on:  Thu Jan  6 10:12:05 2022
  Total elapsed time: 00:00:01