
  EPA STORM WATER MANAGEMENT MODEL - VERSION 5.1 (Build 5.3.0.dev0)
  --------------------------------------------------------------

  WARNING 04: minimum elevation drop used for Conduit WS02004404WS02004405
  WARNING 03: negative offset ignored for Link YS02001904YS02001907
  
  *********************************************************
  NOTE: The summary statistics displayed in this report are
  based on results found at every computational time step,  
  not just on results from each reporting time step.
  *********************************************************
  
  ****************
  Analysis Options
  ****************
  Flow Units ............... LPS
  Process Models:
    Rainfall/Runoff ........ YES
    RDII ................... NO
    Snowmelt ............... NO
    Groundwater ............ NO
    Flow Routing ........... YES
    Ponding Allowed ........ NO
    Water Quality .......... NO
  Infiltration Method ...... HORTON
  Flow Routing Method ...... DYNWAVE
  Surcharge Method ......... EXTRAN
  Starting Date ............ 08/28/2015 08:00:00
  Ending Date .............. 08/28/2015 15:50:00
  Antecedent Dry Days ...... 8.0
  Report Time Step ......... 00:01:00
  Wet Time Step ............ 00:01:00
  Dry Time Step ............ 00:01:00
  Routing Time Step ........ 5.00 sec
  Variable Time Step ....... YES
  Maximum Trials ........... 8
  Number of Threads ........ 4
  Head Tolerance ........... 0.001500 m
  
  
  **************************        Volume         Depth
  Runoff Quantity Continuity     hectare-m            mm
  **************************     ---------       -------
  Total Precipitation ......         3.299         7.222
  Evaporation Loss .........         0.000         0.000
  Infiltration Loss ........         0.835         1.829
  Surface Runoff ...........         1.533         3.357
  Final Storage ............         0.931         2.037
  Continuity Error (%) .....        -0.018
  
  
  **************************        Volume        Volume
  Flow Routing Continuity        hectare-m      10^6 ltr
  **************************     ---------     ---------
  Dry Weather Inflow .......         0.616         6.165
  Wet Weather Inflow .......         1.532        15.323
  Groundwater Inflow .......         0.000         0.000
  RDII Inflow ..............         0.000         0.000
  External Inflow ..........         0.102         1.024
  External Outflow .........         1.025        10.247
  Flooding Loss ............         0.724         7.241
  Evaporation Loss .........         0.000         0.000
  Exfiltration Loss ........         0.000         0.000
  Initial Stored Volume ....         0.076         0.761
  Final Stored Volume ......         0.582         5.822
  Continuity Error (%) .....        -0.162
  
  
  *************************
  Highest Continuity Errors
  *************************
  Node YS02001774 (26.44%)
  Node HS02004842 (24.59%)
  Node YS02001884 (18.87%)
  Node WS02004139 (6.67%)
  Node WS02003059 (6.36%)
  
  
  ***************************
  Time-Step Critical Elements
  ***************************
  Link WS02006252WS02006251 (77.12%)
  Link 3 (16.31%)
  Link WS02006280WS02006229 (1.94%)
  Link WS02006238WS02006235 (1.12%)
  
  
  ********************************
  Highest Flow Instability Indexes
  ********************************
  Link WS02006113WS02006111 (40)
  Link WS02006111WS02006112 (30)
  Link YS02001779YS02001774 (24)
  Link YS02001619YS02001622 (21)
  Link YS02001774YS02001770 (21)
  
  
  *************************
  Routing Time Step Summary
  *************************
  Minimum Time Step           :     0.50 sec
  Average Time Step           :     0.87 sec
  Maximum Time Step           :     5.00 sec
  Percent in Steady State     :    -0.00
  Average Iterations per Step :     4.79
  Percent Not Converging      :    32.75
  
  
  ***************************
  Subcatchment Runoff Summary
  ***************************
  
  ------------------------------------------------------------------------------------------------------------------------------
                            Total      Total      Total      Total     Imperv       Perv      Total       Total     Peak  Runoff
                           Precip      Runon       Evap      Infil     Runoff     Runoff     Runoff      Runoff   Runoff   Coeff
  Subcatchment                 mm         mm         mm         mm         mm         mm         mm    10^6 ltr      LPS
  ------------------------------------------------------------------------------------------------------------------------------
  sub0                       7.22       0.00       0.00       0.51       5.45       0.00       5.45        0.00     1.87   0.755
  sub1                       7.22       0.00       0.00       0.79       5.17       0.00       5.17        0.03    10.07   0.716
  sub2                       7.22       0.00       0.00       2.67       3.64       0.00       3.64        0.03     8.96   0.504
  sub3                       7.22       0.00       0.00       2.67       3.61       0.00       3.61        0.08    18.60   0.499
  sub4                       7.22       0.00       0.00       0.79       5.03       0.00       5.03        0.10    21.02   0.696
  sub5                       7.22       0.00       0.00       0.51       5.40       0.00       5.40        0.06    17.91   0.748
  sub7                       7.22       0.00       0.00       0.65       5.32       0.00       5.32        0.02     6.25   0.736
  sub8                       7.22       0.00       0.00       0.65       5.31       0.00       5.31        0.03    11.07   0.735
  sub9                       7.22       0.00       0.00       0.65       5.31       0.00       5.31        0.03     8.21   0.735
  sub10                      7.22       0.00       0.00       0.58       5.35       0.00       5.35        0.06    17.84   0.741
  sub11                      7.22       0.00       0.00       0.58       5.37       0.00       5.37        0.06    20.80   0.743
  sub12                      7.22       0.00       0.00       0.94       5.09       0.00       5.09        0.04    17.39   0.705
  sub14                      7.22       0.00       0.00       0.65       5.30       0.00       5.30        0.05    16.06   0.734
  sub15                      7.22       0.00       0.00       2.17       4.08       0.00       4.08        0.07    21.83   0.565
  sub16                      7.22       0.00       0.00       2.38       3.92       0.00       3.92        0.04    15.34   0.543
  sub17                      7.22       0.00       0.00       2.31       3.98       0.00       3.98        0.03    12.43   0.551
  sub22                      7.22       0.00       0.00       3.11       3.33       0.00       3.33        0.21    71.06   0.461
  sub23                      7.22       0.00       0.00       2.67       3.68       0.00       3.68        0.18    60.47   0.510
  sub60                      7.22       0.00       0.00       0.87       3.78       0.00       3.78        1.14   112.07   0.523
  sub61                      7.22       0.00       0.00       1.23       3.98       0.00       3.98        1.23   138.95   0.551
  sub62                      7.22       0.00       0.00       0.58       4.28       0.00       4.28        1.32   142.49   0.593
  sub63                      7.22       0.00       0.00       2.09       3.52       0.00       3.52        1.07   129.10   0.488
  sub64                      7.22       0.00       0.00       1.08       3.61       0.00       3.61        1.10   106.54   0.500
  sub65                      7.22       0.00       0.00       0.94       3.66       0.00       3.66        1.13   108.21   0.507
  sub66                      7.22       0.00       0.00       2.09       3.14       0.00       3.14        0.96    97.28   0.435
  sub67                      7.22       0.00       0.00       0.58       4.65       0.00       4.65        1.44   180.98   0.644
  sub68                      7.22       0.00       0.00       1.01       4.22       0.00       4.22        1.30   153.18   0.584
  sub69                      7.22       0.00       0.00       1.08       4.50       0.00       4.50        1.05   150.30   0.622
  sub70                      7.22       4.59       0.00       4.02       5.68       0.00       5.68        1.30   127.11   0.481
  sub71                      7.22       0.00       0.00       0.58       4.12       0.00       4.12        0.97    99.87   0.570
  sub72                      7.22       0.00       0.00       0.51       3.01       0.00       3.01        0.61    48.25   0.416
  sub73                      7.22       5.52       0.00       4.33       5.90       0.00       5.90        1.39   110.44   0.463
  sub74                      7.22       0.00       0.00       5.42       1.35       0.00       1.35        0.54    83.48   0.187
  
  
  ******************
  Node Depth Summary
  ******************
  
  ---------------------------------------------------------------------------------
                                 Average  Maximum  Maximum  Time of Max    Reported
                                   Depth    Depth      HGL   Occurrence   Max Depth
  Node                 Type       Meters   Meters   Meters  days hr:min      Meters
  ---------------------------------------------------------------------------------
  WS02001211           JUNCTION     0.40     0.51     5.35     0  00:30        0.51
  WS02001212           JUNCTION     0.18     0.27     5.33     0  02:35        0.27
  WS02001213           JUNCTION     0.46     0.57     5.33     0  02:35        0.57
  WS02003069           JUNCTION     0.33     0.44     5.03     0  02:37        0.44
  WS02003072           JUNCTION     0.39     0.51     4.88     0  02:38        0.51
  WS02003073           JUNCTION     0.23     0.31     4.37     0  02:39        0.31
  WS02003060           JUNCTION     0.29     0.40     5.33     0  02:36        0.40
  WS02003066           JUNCTION     0.23     0.30     5.86     0  02:33        0.30
  WS02003059           JUNCTION     0.53     0.64     5.33     0  02:35        0.64
  WS02003067           JUNCTION     0.58     0.71     6.03     0  02:33        0.71
  WS02004401           JUNCTION     0.67     0.87     6.87     0  02:30        0.87
  WS02004402           JUNCTION     0.70     0.89     6.85     0  02:30        0.89
  WS02004403           JUNCTION     0.72     0.91     6.84     0  02:30        0.90
  WS02004404           JUNCTION     0.80     0.98     6.83     0  02:30        0.98
  WS02004406           JUNCTION     0.81     0.97     6.80     0  02:30        0.97
  WS02004409           JUNCTION     0.49     0.68     6.45     0  02:32        0.68
  WS02004410           JUNCTION     0.51     0.69     6.41     0  02:32        0.69
  WS02004411           JUNCTION     0.53     0.70     6.38     0  02:33        0.70
  WS02004412           JUNCTION     0.54     0.71     6.35     0  02:33        0.71
  WS02004413           JUNCTION     0.70     0.87     6.34     0  02:33        0.87
  WS02004405           JUNCTION     0.80     0.97     6.82     0  02:30        0.97
  WS02006109           JUNCTION     0.75     0.99     7.60     0  02:26        0.99
  WS02006110           JUNCTION     0.74     0.93     7.52     0  02:26        0.93
  WS02006111           JUNCTION     0.22     0.29     7.00     0  02:27        0.29
  WS02006112           JUNCTION     0.84     1.08     6.97     0  02:37        1.07
  WS02006113           JUNCTION     0.34     0.46     7.35     0  02:27        0.46
  WS02006115           JUNCTION     0.56     0.77     6.91     0  02:30        0.77
  WS02006116           JUNCTION     0.65     0.85     6.89     0  02:29        0.85
  WS02006230           JUNCTION     0.71     1.03     7.77     0  02:28        1.03
  WS02006231           JUNCTION     0.48     0.69     7.81     0  02:28        0.69
  WS02006232           JUNCTION     0.61     0.81     7.85     0  02:29        0.81
  WS02006234           JUNCTION     0.53     0.74     7.89     0  02:30        0.74
  WS02006235           JUNCTION     0.56     0.76     7.93     0  02:30        0.76
  WS02006238           JUNCTION     0.59     0.79     7.93     0  02:30        0.79
  WS02006240           JUNCTION     0.48     0.69     7.98     0  02:31        0.69
  WS02006242           JUNCTION     0.53     0.74     8.01     0  02:30        0.74
  WS02006243           JUNCTION     0.41     0.61     8.03     0  02:31        0.61
  WS02006245           JUNCTION     0.39     0.57     8.06     0  02:31        0.57
  WS02006247           JUNCTION     0.41     0.58     8.08     0  02:31        0.58
  WS02006248           JUNCTION     0.35     0.51     8.09     0  02:31        0.51
  WS02006249           JUNCTION     0.39     0.52     8.12     0  02:31        0.52
  WS02006239           JUNCTION     0.54     0.75     7.96     0  02:30        0.75
  WS02006251           JUNCTION     0.38     0.49     8.16     0  02:31        0.49
  WS02006252           JUNCTION     0.32     0.35     8.59     0  02:16        0.35
  WS02006253           JUNCTION     0.40     0.52     8.16     0  02:31        0.52
  WS02006256           JUNCTION     1.02     1.15     8.09     0  00:00        1.13
  WS02004138           JUNCTION     0.00     0.10     7.35     0  00:11        0.10
  WS02004407           JUNCTION     0.22     0.30     6.61     0  02:31        0.30
  WS02006228           JUNCTION     0.75     1.03     7.68     0  02:26        1.03
  WS02006229           JUNCTION     0.72     1.03     7.72     0  02:26        1.03
  WS02006280           JUNCTION     0.06     0.17     8.44     0  02:16        0.17
  WS02006284           JUNCTION     0.35     0.51     8.91     0  02:16        0.51
  WS02006287           JUNCTION     0.08     0.25     9.20     0  02:15        0.25
  WSF200               JUNCTION     0.21     0.30     5.53     0  02:35        0.30
  HS02004901           JUNCTION     0.11     0.26    10.08     0  02:13        0.26
  HS02004881           JUNCTION     0.01     0.03     9.06     0  02:15        0.03
  HS02004876           JUNCTION     0.04     0.11     9.14     0  02:11        0.11
  HS02004870           JUNCTION     0.01     0.05     9.34     0  02:16        0.05
  HS02004862           JUNCTION     0.01     0.06     9.44     0  02:17        0.06
  HS02004856           JUNCTION     0.07     0.11     9.54     0  02:16        0.11
  HS02004852           JUNCTION     0.01     0.03     9.55     0  02:17        0.03
  HS02004848           JUNCTION     0.01     0.03     9.63     0  02:16        0.03
  HS02004842           JUNCTION     0.33     0.36     9.63     0  02:16        0.36
  HS02004837           JUNCTION     0.03     0.05     9.63     0  02:16        0.05
  HS02004830           JUNCTION     0.04     0.07     9.54     0  02:16        0.07
  HS02004824           JUNCTION     0.02     0.05     9.45     0  02:19        0.05
  HS02004817           JUNCTION     0.43     0.55     9.40     0  02:16        0.55
  HS02004807           JUNCTION     0.11     0.23     9.40     0  02:16        0.23
  HS02004802           JUNCTION     0.15     0.26     9.39     0  02:16        0.26
  HS02004799           JUNCTION     0.10     0.30     9.51     0  02:14        0.30
  HS02004792           JUNCTION     0.03     0.12     9.64     0  02:13        0.12
  HS02004788           JUNCTION     0.02     0.09     9.99     0  02:14        0.09
  HS02004785           JUNCTION     0.04     0.16    10.06     0  02:14        0.16
  HS02004777           JUNCTION     0.13     0.28    10.08     0  02:13        0.28
  HS02004770           JUNCTION     0.10     0.25    10.08     0  02:13        0.25
  HS02004480           JUNCTION     0.07     0.23     9.47     0  02:14        0.23
  HS02004479           JUNCTION     0.10     0.27     9.47     0  02:14        0.27
  HS02004478           JUNCTION     0.05     0.15     9.38     0  02:15        0.15
  YS02001745           JUNCTION     0.49     0.74     8.26     0  05:57        0.74
  YS02001748           JUNCTION     0.87     1.20     8.28     0  04:27        1.17
  YS02001751           JUNCTION     1.06     1.68     8.56     0  03:35        1.38
  YS02001754           JUNCTION     1.31     1.76     8.37     0  03:35        1.66
  YS02001762           JUNCTION     1.50     1.89     8.29     0  05:56        1.88
  YS02001765           JUNCTION     1.46     1.85     8.30     0  05:16        1.83
  YS02001767           JUNCTION     1.42     1.81     8.30     0  05:47        1.80
  YS02001770           JUNCTION     1.41     1.87     8.37     0  03:18        1.80
  YS02001774           JUNCTION     1.48     1.96     8.38     0  03:18        1.88
  YS02001779           JUNCTION     1.23     1.68     8.37     0  03:18        1.61
  YS02001882           JUNCTION     0.32     0.56     7.27     0  02:48        0.56
  YS02001884           JUNCTION     0.41     0.66     7.27     0  02:48        0.66
  YS02001759           JUNCTION     1.54     1.92     8.29     0  05:47        1.91
  YS02001887           JUNCTION     0.49     0.74     7.27     0  02:48        0.74
  YS02001890           JUNCTION     0.52     0.77     7.27     0  02:48        0.77
  YS02001898           JUNCTION     0.29     0.52     7.26     0  02:52        0.52
  YS02001901           JUNCTION     0.41     0.65     7.26     0  02:53        0.65
  YS02001904           JUNCTION     0.39     0.62     7.25     0  02:53        0.62
  YS02001907           JUNCTION     0.72     0.97     7.25     0  02:50        0.97
  YS02001910           JUNCTION     0.51     0.75     7.26     0  02:52        0.75
  YS02001915           JUNCTION     0.31     0.54     7.25     0  02:52        0.54
  YS02001918           JUNCTION     0.10     0.19     7.25     0  02:48        0.19
  YS02001619           JUNCTION     1.02     1.51     8.44     0  04:17        1.50
  YS02001629           JUNCTION     1.37     1.85     8.40     0  04:20        1.83
  YS02001641           JUNCTION     1.47     1.88     8.32     0  05:34        1.87
  YS02001644           JUNCTION     1.48     1.88     8.31     0  05:37        1.87
  YS02001652           JUNCTION     1.32     2.01     8.61     0  03:19        1.69
  YS02001655           JUNCTION     1.08     2.14     8.99     0  03:19        1.45
  YS02001920           JUNCTION     0.19     0.26     7.27     0  02:54        0.26
  YS02001923           JUNCTION     0.07     0.10     7.36     0  03:01        0.10
  YS02001926           JUNCTION     0.16     0.20     7.65     0  03:01        0.20
  YS02001929           JUNCTION     0.08     0.10     7.80     0  03:01        0.10
  YS02001658           JUNCTION     0.82     1.36     8.50     0  04:32        1.16
  YS02001661           JUNCTION     0.59     0.90     8.30     0  05:42        0.90
  YS02001664           JUNCTION     0.20     0.40     8.32     0  05:42        0.39
  YS02001622           JUNCTION     1.04     1.52     8.42     0  04:17        1.51
  YS02001633           JUNCTION     1.46     1.91     8.36     0  04:20        1.90
  YS02001649           JUNCTION     1.51     1.90     8.29     0  05:49        1.89
  YS02001757           JUNCTION     1.63     2.02     8.29     0  05:45        2.01
  YS02001895           JUNCTION     0.29     0.52     7.26     0  02:52        0.52
  YS02001625           JUNCTION     1.32     1.78     8.38     0  04:16        1.78
  YS02163301           JUNCTION     1.40     1.87     8.38     0  04:20        1.85
  YS02163601           JUNCTION     1.51     1.94     8.34     0  04:20        1.92
  YS02164001           JUNCTION     1.45     1.87     8.32     0  04:20        1.85
  YS02001647           JUNCTION     1.31     1.69     8.30     0  05:34        1.68
  YSB1154              JUNCTION     0.24     0.42     9.48     0  02:14        0.42
  YSB6556              JUNCTION     0.14     0.31     9.48     0  02:14        0.31
  YSB1174              JUNCTION     0.19     0.37     9.48     0  02:14        0.37
  YSB1171              JUNCTION     0.39     0.57     9.48     0  02:14        0.57
  YS02006553           JUNCTION     0.72     0.97     7.25     0  02:51        0.97
  YS02006561           JUNCTION     0.16     0.29     6.95     0  02:50        0.28
  YS02006556           JUNCTION     0.69     0.94     7.25     0  02:49        0.94
  YS02006558           JUNCTION     0.74     0.98     7.25     0  02:48        0.98
  YS02001783           JUNCTION     0.30     0.68     6.82     0  03:05        0.68
  YS02001784           JUNCTION     0.34     0.74     6.80     0  03:06        0.73
  YS02001786           JUNCTION     0.31     0.73     6.76     0  03:06        0.73
  YS02001788           JUNCTION     0.26     0.75     6.72     0  03:06        0.74
  YS02001790           JUNCTION     0.36     1.05     6.69     0  03:06        1.04
  YS02001791           JUNCTION     0.34     1.32     6.79     0  03:00        1.16
  YS02001793           JUNCTION     0.47     3.60     8.43     0  02:55        1.78
  WS02004139           JUNCTION     0.33     0.45     5.36     0  00:30        0.45
  WSC                  OUTFALL      0.23     0.31     0.98     0  02:39        0.31
  3                    OUTFALL      0.07     0.13     6.13     0  00:00        0.12
  4                    OUTFALL      0.00     0.02     7.02     0  02:31        0.02
  5                    OUTFALL      0.00     0.00     5.00     0  00:00        0.00
  JK-storage           STORAGE      1.93     5.80     6.60     0  03:04        5.80
  CC-storage           STORAGE      0.88     1.24     8.24     0  06:02        1.24
  XR-storage           STORAGE      7.64     7.72     5.72     0  00:43        7.72
  
  
  *******************
  Node Inflow Summary
  *******************
  
  -------------------------------------------------------------------------------------------------
                                  Maximum  Maximum                  Lateral       Total        Flow
                                  Lateral    Total  Time of Max      Inflow      Inflow     Balance
                                   Inflow   Inflow   Occurrence      Volume      Volume       Error
  Node                 Type           LPS      LPS  days hr:min    10^6 ltr    10^6 ltr     Percent
  -------------------------------------------------------------------------------------------------
  WS02001211           JUNCTION      7.35   102.63     0  00:30       0.207       0.427       3.517
  WS02001212           JUNCTION      0.00   102.59     0  00:30           0       0.426       1.229
  WS02001213           JUNCTION      0.00   102.57     0  00:30           0       0.437       3.761
  WS02003069           JUNCTION      0.32   585.59     0  02:37     0.00902        7.98       0.235
  WS02003072           JUNCTION      0.00   585.18     0  02:37           0        7.96       0.312
  WS02003073           JUNCTION      1.82   586.73     0  02:38      0.0514        7.99       0.329
  WS02003060           JUNCTION     16.53   585.50     0  02:36       0.466        8.05       0.225
  WS02003066           JUNCTION      0.00   554.73     0  02:33           0         7.2       0.060
  WS02003059           JUNCTION      0.00   102.50     0  00:31           0       0.453       6.790
  WS02003067           JUNCTION      0.00   554.69     0  02:33           0         7.2       0.128
  WS02004401           JUNCTION      0.00   557.55     0  02:29           0        7.43       0.284
  WS02004402           JUNCTION      0.00   557.26     0  02:29           0        7.41       0.268
  WS02004403           JUNCTION      0.00   556.92     0  02:29           0        7.39       0.244
  WS02004404           JUNCTION      0.16   556.88     0  02:29     0.00457        7.38       0.185
  WS02004406           JUNCTION      0.00   557.01     0  02:30           0        7.35       0.450
  WS02004409           JUNCTION      0.00   556.89     0  02:31           0        7.31       0.217
  WS02004410           JUNCTION      0.00   555.74     0  02:31           0        7.29       0.245
  WS02004411           JUNCTION      0.00   555.16     0  02:32           0        7.27       0.252
  WS02004412           JUNCTION      0.00   554.87     0  02:32           0        7.25       0.274
  WS02004413           JUNCTION      0.00   554.74     0  02:33           0        7.23       0.407
  WS02004405           JUNCTION      0.04   556.98     0  02:30     0.00107        7.37       0.276
  WS02006109           JUNCTION      1.23   552.01     0  02:26      0.0347        7.52       0.291
  WS02006110           JUNCTION      0.00   552.01     0  02:27           0         7.5       0.260
  WS02006111           JUNCTION      0.00   574.84     0  02:27           0        7.47       0.059
  WS02006112           JUNCTION     12.43   563.86     0  02:27      0.0341         7.5       0.386
  WS02006113           JUNCTION      0.00   552.24     0  02:26           0        7.48       0.125
  WS02006115           JUNCTION      0.00   562.38     0  02:27           0        7.47       0.262
  WS02006116           JUNCTION      0.00   558.51     0  02:28           0        7.45       0.250
  WS02006230           JUNCTION     10.28   339.59     0  02:52        0.29        6.42       0.229
  WS02006231           JUNCTION      0.00   328.42     0  02:52           0        6.13       0.138
  WS02006232           JUNCTION      0.00   328.38     0  02:52           0        6.15       0.260
  WS02006234           JUNCTION      0.00   327.70     0  02:52           0        6.16       0.125
  WS02006235           JUNCTION      0.00   327.55     0  02:49           0         6.2       0.168
  WS02006238           JUNCTION      0.00   244.36     0  02:39           0        4.18       0.180
  WS02006240           JUNCTION      0.00   243.23     0  02:38           0        4.18       0.274
  WS02006242           JUNCTION      0.00   242.46     0  02:37           0        4.18       0.335
  WS02006243           JUNCTION      0.00   241.56     0  02:20           0        4.18       0.182
  WS02006245           JUNCTION      0.00   245.93     0  02:21           0        4.19       0.196
  WS02006247           JUNCTION      0.00   248.83     0  02:21           0        4.19       0.161
  WS02006248           JUNCTION      0.00   250.61     0  02:20           0         4.2       0.111
  WS02006249           JUNCTION      0.00   252.85     0  02:20           0        4.21       0.225
  WS02006239           JUNCTION      0.00   243.83     0  02:37           0        4.18       0.267
  WS02006251           JUNCTION      0.08   254.74     0  02:19     0.00217        4.22       0.209
  WS02006252           JUNCTION      0.00   200.00     0  02:16           0        4.02       0.011
  WS02006253           JUNCTION      1.87    56.80     0  02:15     0.00441       0.194       1.859
  WS02006256           JUNCTION      0.00   300.00     0  00:00           0        4.33       0.066
  WS02004138           JUNCTION      0.00    95.00     0  00:00           0         0.2       0.401
  WS02004407           JUNCTION      0.00   556.92     0  02:30           0        7.31       0.098
  WS02006228           JUNCTION      0.00   550.78     0  02:26           0         7.5       0.201
  WS02006229           JUNCTION      0.00   550.68     0  02:26           0        7.51       0.175
  WS02006280           JUNCTION      0.00   283.63     0  02:16           0        1.11       0.006
  WS02006284           JUNCTION      0.10   283.60     0  02:16      0.0027        1.12       0.100
  WS02006287           JUNCTION      0.00   283.48     0  02:15           0        1.11       0.065
  WSF200               JUNCTION      0.00   554.73     0  02:33           0        7.19       0.052
  HS02004901           JUNCTION     15.34    15.34     0  02:09       0.041      0.0412       4.460
  HS02004881           JUNCTION      6.25    55.32     0  02:15      0.0179        0.19       0.207
  HS02004876           JUNCTION     10.07    49.33     0  02:16      0.0344       0.173       0.309
  HS02004870           JUNCTION     11.07    39.43     0  02:15      0.0339       0.139       0.077
  HS02004862           JUNCTION      9.16    29.04     0  02:16      0.0396       0.105       0.163
  HS02004856           JUNCTION      8.21    19.93     0  02:15      0.0255      0.0668       2.209
  HS02004852           JUNCTION      0.00    12.20     0  02:16           0      0.0413       0.127
  HS02004848           JUNCTION     18.60    18.60     0  02:19      0.0812      0.0812       0.054
  HS02004842           JUNCTION      0.00     7.06     0  02:28           0      0.0529      32.609
  HS02004837           JUNCTION     24.19    30.02     0  02:15       0.238       0.278       0.293
  HS02004830           JUNCTION      0.15    30.15     0  02:16     0.00423       0.268       0.462
  HS02004824           JUNCTION     21.07    50.96     0  02:19       0.106       0.373       0.144
  HS02004817           JUNCTION      0.60    51.55     0  02:19      0.0169        0.39       4.468
  HS02004807           JUNCTION     20.80    70.59     0  02:17      0.0623       0.435       0.980
  HS02004802           JUNCTION      0.00    71.07     0  02:18           0       0.431       0.950
  HS02004799           JUNCTION     16.06   181.64     0  02:13      0.0505       0.596       0.385
  HS02004792           JUNCTION     71.34   165.81     0  02:13       0.218       0.546       0.074
  HS02004788           JUNCTION     23.50    96.42     0  02:13       0.117       0.329       0.119
  HS02004785           JUNCTION      0.15    73.21     0  02:13     0.00423       0.214       0.227
  HS02004777           JUNCTION      0.03    73.52     0  02:12    0.000846       0.214       2.481
  HS02004770           JUNCTION     60.47    74.61     0  02:10       0.175       0.215       1.462
  HS02004480           JUNCTION      0.00   214.32     0  02:14           0       0.698       0.109
  HS02004479           JUNCTION      0.00    33.36     0  02:15           0       0.115       0.639
  HS02004478           JUNCTION      0.00   283.47     0  02:15           0        1.11       0.054
  YS02001745           JUNCTION    112.07   234.35     0  04:05        1.14        1.21       0.726
  YS02001748           JUNCTION      0.04   425.02     0  03:11     0.00127        1.27       1.741
  YS02001751           JUNCTION      0.01   415.84     0  03:15     0.00031        1.18       1.850
  YS02001754           JUNCTION      0.26   194.47     0  03:16     0.00733         1.1       2.169
  YS02001762           JUNCTION      0.00   168.33     0  03:00           0        1.25       1.694
  YS02001765           JUNCTION      0.00   168.35     0  03:00           0        1.25       1.951
  YS02001767           JUNCTION      0.54   167.62     0  03:00      0.0151        1.27       2.858
  YS02001770           JUNCTION    142.64   177.34     0  02:37        1.32        1.35       2.378
  YS02001774           JUNCTION      0.00    65.02     0  03:19           0      0.0955      35.942
  YS02001779           JUNCTION      0.01    63.71     0  03:19    0.000141      0.0416      56.396
  YS02001882           JUNCTION      0.00     5.21     0  02:07           0     0.00713      34.462
  YS02001884           JUNCTION      0.00    14.84     0  02:09           0      0.0276      23.259
  YS02001759           JUNCTION    138.99   304.45     0  03:00        1.23        2.44       0.948
  YS02001887           JUNCTION    181.43   182.23     0  02:39        1.45        1.46       0.516
  YS02001890           JUNCTION      0.00   180.95     0  02:39           0        1.43       0.576
  YS02001898           JUNCTION      0.00   180.48     0  02:49           0        1.42       0.176
  YS02001901           JUNCTION      0.00   181.94     0  02:51           0        1.42       0.414
  YS02001904           JUNCTION      0.00   182.40     0  02:51           0        1.42       0.385
  YS02001907           JUNCTION      0.00   335.57     0  02:54           0        3.07       0.743
  YS02001910           JUNCTION      0.00   155.56     0  02:56           0        1.66       0.642
  YS02001915           JUNCTION     99.89   152.05     0  02:55       0.973        1.66       0.299
  YS02001918           JUNCTION      0.00    51.72     0  03:03           0        0.69       0.194
  YS02001619           JUNCTION     97.28    97.28     0  02:57       0.962       0.962       1.262
  YS02001629           JUNCTION      0.00   220.01     0  03:24           0       0.889       3.297
  YS02001641           JUNCTION      0.00   221.64     0  03:03           0        1.91       1.103
  YS02001644           JUNCTION    106.58   327.18     0  02:59         1.1        2.98       0.879
  YS02001652           JUNCTION      0.00   228.06     0  03:01           0        1.01       2.112
  YS02001655           JUNCTION      0.15   456.56     0  03:00     0.00434        1.09       1.962
  YS02001920           JUNCTION      2.87    51.11     0  03:01      0.0809       0.693       0.332
  YS02001923           JUNCTION      0.04    48.24     0  03:01     0.00106       0.612       0.059
  YS02001926           JUNCTION      0.05    48.29     0  03:01     0.00147       0.613       0.413
  YS02001929           JUNCTION     48.25    48.25     0  03:01       0.612       0.612       0.058
  YS02001658           JUNCTION      0.00   409.52     0  03:02           0        1.18       1.402
  YS02001661           JUNCTION      0.00   247.08     0  04:00           0        1.49       1.064
  YS02001664           JUNCTION    129.10   202.48     0  05:08        1.07        1.41       0.208
  YS02001622           JUNCTION      0.00   161.32     0  03:25           0       0.956       3.428
  YS02001633           JUNCTION    108.41   223.87     0  03:03        1.13        1.97       1.643
  YS02001649           JUNCTION      0.00   535.19     0  03:01           0        3.91       0.955
  YS02001757           JUNCTION      0.00   835.03     0  03:01           0        7.33       1.278
  YS02001895           JUNCTION      0.00   180.65     0  02:38           0        1.42       0.284
  YS02001625           JUNCTION      0.00   220.94     0  03:24           0        0.93       4.407
  YS02163301           JUNCTION      0.00   118.64     0  03:03           0       0.868       2.813
  YS02163601           JUNCTION      0.11   223.09     0  03:03      0.0031        1.93       1.571
  YS02164001           JUNCTION      0.00   222.18     0  03:03           0        1.91       1.051
  YS02001647           JUNCTION      0.00   327.14     0  02:59           0        2.94       0.927
  YSB1154              JUNCTION     17.91    17.91     0  02:13      0.0612      0.0625       2.365
  YSB6556              JUNCTION      0.00    17.93     0  02:15           0      0.0634       2.007
  YSB1174              JUNCTION     17.39    17.39     0  02:08      0.0445      0.0454       2.907
  YSB1171              JUNCTION      0.00    33.25     0  02:14           0       0.114       5.851
  YS02006553           JUNCTION      0.00   339.26     0  02:51           0        3.05       0.481
  YS02006561           JUNCTION      0.00   525.25     0  02:49           0        4.32       0.006
  YS02006556           JUNCTION      0.00   339.11     0  02:50           0        3.06       0.348
  YS02006558           JUNCTION    154.06   497.03     0  02:48        1.32        4.35       0.117
  YS02001783           JUNCTION      0.00   488.18     0  02:50           0        4.32       0.041
  YS02001784           JUNCTION      1.06   487.17     0  02:51      0.0299        4.35       0.066
  YS02001786           JUNCTION      0.06   485.54     0  02:51     0.00159        4.35       0.063
  YS02001788           JUNCTION      0.07   485.19     0  02:51       0.002        4.35       0.036
  YS02001790           JUNCTION      0.15   498.07     0  03:00     0.00437        4.35       0.045
  YS02001791           JUNCTION      0.00   484.81     0  02:52           0        4.35       0.021
  YS02001793           JUNCTION      0.00   876.60     0  02:55           0        4.35      -0.030
  WS02004139           JUNCTION      0.32    95.32     0  00:11     0.00905       0.218       7.150
  WSC                  OUTFALL       0.00   586.31     0  02:39           0        7.96       0.000
  3                    OUTFALL       0.00   250.55     0  00:00           0        2.28       0.000
  4                    OUTFALL       0.00     4.56     0  02:31           0     0.00212       0.000
  5                    OUTFALL       0.00     0.00     0  00:00           0           0       0.000 ltr
  JK-storage           STORAGE       0.00  1151.37     0  02:54           0        4.51      -0.623
  CC-storage           STORAGE       0.00   827.99     0  02:55           0        7.23       0.820
  XR-storage           STORAGE     380.78   380.78     0  02:55        7.57        8.17       0.000
  
  
  **********************
  Node Surcharge Summary
  **********************
  
  Surcharging occurs when water rises above the top of the highest conduit.
  ---------------------------------------------------------------------
                                               Max. Height   Min. Depth
                                   Hours       Above Crown    Below Rim
  Node                 Type      Surcharged         Meters       Meters
  ---------------------------------------------------------------------
  WS02006109           JUNCTION        1.08          0.167        1.653
  WS02006110           JUNCTION        0.30          0.023        1.827
  WS02006112           JUNCTION        0.52          0.083        1.597
  WS02006232           JUNCTION        0.79          0.108        1.372
  WS02006234           JUNCTION        0.19          0.016        1.224
  WS02006235           JUNCTION        0.41          0.051        1.239
  WS02006238           JUNCTION        0.49          0.067        1.363
  WS02006242           JUNCTION        0.14          0.011        0.809
  WS02006239           JUNCTION        0.13          0.008        1.282
  WS02006228           JUNCTION        1.05          0.199        2.001
  YS02001748           JUNCTION        2.84          0.120        1.070
  YS02001751           JUNCTION        4.16          0.684        0.516
  YS02001754           JUNCTION        4.80          0.714        0.436
  YS02001762           JUNCTION        5.40          0.893        0.257
  YS02001765           JUNCTION        5.37          0.846        0.254
  YS02001767           JUNCTION        5.34          0.814        0.216
  YS02001770           JUNCTION        5.30          0.841        0.079
  YS02001774           JUNCTION        5.39          0.960        0.090
  YS02001779           JUNCTION        4.62          0.680        0.000
  YS02001759           JUNCTION        5.43          0.923        0.287
  YS02001619           JUNCTION        4.01          0.506        0.104
  YS02001629           JUNCTION        4.03          0.469        0.001
  YS02001641           JUNCTION        5.38          0.880        0.220
  YS02001644           JUNCTION        5.38          0.878        0.042
  YS02001652           JUNCTION        5.01          0.981        0.149
  YS02001655           JUNCTION        4.28          1.137        0.063
  YS02001658           JUNCTION        2.91          0.359        0.941
  YS02001622           JUNCTION        4.12          0.520        0.100
  YS02001633           JUNCTION        5.36          0.888        0.172
  YS02001649           JUNCTION        5.41          0.903        0.147
  YS02001757           JUNCTION        5.49          1.025        0.185
  YS02001625           JUNCTION        5.17          0.780        0.000
  YS02163301           JUNCTION        5.33          0.868        0.162
  YS02163601           JUNCTION        5.40          0.940        0.140
  YS02164001           JUNCTION        5.37          0.867        0.233
  YS02001647           JUNCTION        5.12          0.690        0.210
  YS02001790           JUNCTION        1.04          0.248        0.909
  YS02001791           JUNCTION        1.18          0.521        1.399
  YS02001793           JUNCTION        1.42          2.600        0.000
  
  
  *********************
  Node Flooding Summary
  *********************
  
  Flooding refers to all water that overflows a node, whether it ponds or not.
  --------------------------------------------------------------------------
                                                             Total   Maximum
                                 Maximum   Time of Max       Flood    Ponded
                        Hours       Rate    Occurrence      Volume     Depth
  Node                 Flooded       LPS   days hr:min    10^6 ltr    Meters
  --------------------------------------------------------------------------
  YS02001779              0.01     24.51      0  03:19       0.000     0.000
  YS02001625              0.01      9.18      0  04:20       0.000     0.000
  YS02001793              0.01    381.86      0  02:55       0.000     0.000
  JK-storage              0.72    177.89      0  03:06       0.201     0.000
  XR-storage              7.10    380.78      0  02:55       7.040     0.000
  
  
  **********************
  Storage Volume Summary
  **********************
  
  --------------------------------------------------------------------------------------------------
                         Average     Avg  Evap Exfil       Maximum     Max    Time of Max    Maximum
                          Volume    Pcnt  Pcnt  Pcnt        Volume    Pcnt     Occurrence    Outflow
  Storage Unit           1000 m3    Full  Loss  Loss       1000 m3    Full    days hr:min        LPS
  --------------------------------------------------------------------------------------------------
  JK-storage               0.097      33     0     0         0.291     100       0  03:04     694.57
  CC-storage               2.452      16     0     0         3.457      22       0  06:02     200.00
  XR-storage               0.917      99     0     0         0.926     100       0  00:43      95.00
  
  
  ***********************
  Outfall Loading Summary
  ***********************
  
  -----------------------------------------------------------
                         Flow       Avg       Max       Total
                         Freq      Flow      Flow      Volume
  Outfall Node           Pcnt       LPS       LPS    10^6 ltr
  -----------------------------------------------------------
  WSC                   99.99    349.53    586.31       7.962
  3                     75.73    137.38    250.55       2.283
  4                      4.40      2.26      4.56       0.002
  5                      0.00      0.00      0.00       0.000
  -----------------------------------------------------------
  System                45.03    489.17    809.59      10.247
  
  
  ********************
  Link Flow Summary
  ********************
  
  -----------------------------------------------------------------------------
                                 Maximum  Time of Max   Maximum    Max/    Max/
                                  |Flow|   Occurrence   |Veloc|    Full    Full
  Link                 Type          LPS  days hr:min     m/sec    Flow   Depth
  -----------------------------------------------------------------------------
  WS02003066WSF200     CONDUIT    554.73     0  02:33      2.89    0.09    0.23
  WS02006287WS02006284 CONDUIT    283.51     0  02:16      1.80    0.13    0.25
  WS02006284WS02006280 CONDUIT    283.63     0  02:16      2.04    0.12    0.23
  WS02006280WS02006229 CONDUIT    283.63     0  02:16      3.29    0.06    0.17
  WS02006229WS02006228 CONDUIT    550.78     0  02:26      1.10    1.82    1.00
  WS02006256WS02006235 CONDUIT    166.25     0  00:01      2.58    1.76    1.00
  WS02006253WS02006251 CONDUIT     55.97     0  02:13      0.55    0.17    0.72
  WS02006252WS02006251 CONDUIT    200.86     0  02:16      1.97    0.74    0.76
  WS02006251WS02006249 CONDUIT    252.85     0  02:20      1.00    0.73    0.72
  WS02006249WS02006248 CONDUIT    250.61     0  02:20      1.09    1.37    0.72
  WS02006248WS02006247 CONDUIT    248.83     0  02:21      1.06    0.54    0.77
  WS02006247WS02006245 CONDUIT    245.93     0  02:21      1.01    1.95    0.81
  WS02006245WS02006243 CONDUIT    241.56     0  02:20      1.06    0.71    0.84
  WS02006243WS02006242 CONDUIT    242.46     0  02:37      0.85    0.52    0.94
  WS02006242WS02006240 CONDUIT    243.23     0  02:38      0.70    0.97    0.98
  WS02006240WS02006239 CONDUIT    243.83     0  02:37      0.73    0.77    0.99
  WS02006239WS02006238 CONDUIT    244.36     0  02:39      0.67    0.78    1.00
  WS02006238WS02006235 CONDUIT    244.42     0  02:40      1.25    0.55    1.00
  WS02006235WS02006234 CONDUIT    327.70     0  02:52      0.94    3.46    1.00
  WS02006234WS02006232 CONDUIT    328.38     0  02:52      1.13    0.66    1.00
  WS02006232WS02006231 CONDUIT    328.42     0  02:52      0.94    0.69    0.98
  WS02006231WS02006230 CONDUIT    329.31     0  02:52      1.29    5.00    0.95
  WS02006230WS02006229 CONDUIT    340.90     0  02:51      0.89    7.59    1.00
  WS02006228WS02006109 CONDUIT    550.78     0  02:26      1.10    2.41    1.00
  WS02006116WS02004401 CONDUIT    557.55     0  02:29      0.78    0.77    0.86
  WS02006115WS02006116 CONDUIT    558.51     0  02:28      0.87    0.72    0.78
  WS02006113WS02006111 CONDUIT    574.84     0  02:27      2.48    0.69    0.47
  WS02006112WS02006115 CONDUIT    562.38     0  02:27      0.77    0.33    0.88
  WS02006111WS02006112 CONDUIT    556.01     0  02:27      1.54    0.26    0.68
  WS02006110WS02006113 CONDUIT    552.24     0  02:26      1.30    0.50    0.79
  WS02006109WS02006110 CONDUIT    552.01     0  02:27      1.10    1.06    1.00
  WS02004411WS02004412 CONDUIT    554.87     0  02:32      0.94    0.79    0.70
  WS02004401WS02004402 CONDUIT    557.26     0  02:29      0.77    0.67    0.88
  WS02004413WS02003067 CONDUIT    554.69     0  02:33      1.13    0.24    0.60
  WS02004412WS02004413 CONDUIT    554.74     0  02:33      0.84    0.37    0.79
  WS02004410WS02004411 CONDUIT    555.16     0  02:32      0.95    0.76    0.70
  WS02004409WS02004410 CONDUIT    555.74     0  02:31      0.98    0.72    0.69
  WS02004407WS02004409 CONDUIT    556.89     0  02:31      1.49    0.20    0.49
  WS02004406WS02004407 CONDUIT    556.92     0  02:30      1.06    0.25    0.63
  WS02004405WS02004406 CONDUIT    557.01     0  02:30      0.72    1.10    0.97
  WS02004404WS02004405 CONDUIT    556.94     0  02:30      0.84    5.46    0.97
  WS02004403WS02004404 CONDUIT    556.71     0  02:29      0.74    0.40    0.94
  WS02004402WS02004403 CONDUIT    556.92     0  02:29      0.75    0.80    0.90
  WS02004139WS02001211 CONDUIT     95.28     0  00:30      0.53    0.12    0.36
  WS02004138WS02004139 CONDUIT     95.00     0  00:11      2.39    0.02    0.25
  WS02003067WS02003066 CONDUIT    554.73     0  02:33      1.23    0.18    0.42
  WS02001213WS02003059 CONDUIT    102.50     0  00:31      0.41    0.17    0.59
  WS02001212WS02001213 CONDUIT    102.57     0  00:30      0.81    0.16    0.26
  WS02001211WS02001212 CONDUIT    102.59     0  00:30      0.37    0.08    0.39
  WS02003072WS02003073 CONDUIT    584.91     0  02:38      1.46    1.26    0.38
  WS02003069WS02003072 CONDUIT    585.18     0  02:37      1.39    0.28    0.40
  WS02003060WS02003069 CONDUIT    585.27     0  02:37      1.66    0.23    0.35
  WS02003059WS02003060 CONDUIT    102.41     0  00:31      0.56    0.07    0.52
  HS02004901HS02004770 CONDUIT     14.45     0  02:12      0.06    0.05    0.36
  HS02004876HS02004881 CONDUIT     49.56     0  02:16      0.73    0.53    0.10
  HS02004870HS02004876 CONDUIT     39.41     0  02:16      0.50    0.03    0.11
  HS02004842HS02004848 CONDUIT      7.06     0  02:28      0.04    0.00    0.28
  HS02004837HS02004842 CONDUIT      7.30     0  02:29      0.41    0.00    0.30
  HS02004830HS02004837 CONDUIT     30.00     0  02:16      0.49    0.03    0.09
  HS02004824HS02004830 CONDUIT     30.15     0  02:17      0.53    0.04    0.08
  HS02004817HS02004824 CONDUIT     50.95     0  02:19      0.17    0.02    0.43
  HS02004770HS02004777 CONDUIT     73.49     0  02:12      0.28    0.13    0.38
  HS02004799HS02004480 CONDUIT    181.37     0  02:14      0.70    0.23    0.37
  HS02004792HS02004799 CONDUIT    165.72     0  02:13      0.80    0.10    0.30
  HS02004788HS02004792 CONDUIT     96.34     0  02:14      0.94    0.06    0.15
  HS02004785HS02004788 CONDUIT     73.12     0  02:14      0.60    0.55    0.17
  HS02004777HS02004785 CONDUIT     73.06     0  02:13      0.34    0.09    0.31
  HS02004480HS02004478 CONDUIT    214.31     0  02:14      1.10    0.90    0.28
  HS02004479HS02004480 CONDUIT     33.64     0  02:16      0.16    0.03    0.36
  HS02004862HS02004870 CONDUIT     29.00     0  02:17      0.54    0.03    0.08
  HS02004848HS02004852 CONDUIT     12.20     0  02:16      0.36    0.01    0.05
  HS02004856HS02004862 CONDUIT     19.90     0  02:16      0.40    0.02    0.07
  HS02004852HS02004856 CONDUIT     12.17     0  02:17      0.17    0.01    0.10
  HS02004802HS02004478 CONDUIT     71.63     0  02:19      0.35    0.06    0.30
  HS02004478WS02006287 CONDUIT    283.48     0  02:15      1.50    0.08    0.21
  HS02004817HS02004807 CONDUIT     52.37     0  02:21      0.14    0.03    0.56
  HS02004807HS02004802 CONDUIT     71.07     0  02:18      0.30    0.14    0.34
  YS02001759YS02001757 CONDUIT    304.31     0  03:00      0.39    0.22    1.00
  YS02001762YS02001759 CONDUIT    168.37     0  03:00      0.21    0.19    1.00
  YS02001765YS02001762 CONDUIT    168.33     0  03:00      0.23    0.16    1.00
  YS02001770YS02001767 CONDUIT    167.09     0  03:00      0.31    0.66    1.00
  YS02001774YS02001770 CONDUIT     65.02     0  03:19      0.14    0.04    1.00
  YS02001779YS02001774 CONDUIT     63.70     0  03:19      0.08    0.03    1.00
  YS02001649YS02001757 CONDUIT    534.81     0  03:01      0.68    0.32    1.00
  YS02001767YS02001765 CONDUIT    168.35     0  03:00      0.26    0.21    1.00
  YS02006561YS02001783 CONDUIT    488.18     0  02:50      1.99    0.25    0.60
  YS02001783YS02001784 CONDUIT    486.11     0  02:51      1.42    0.67    0.89
  YS02001784YS02001785 CONDUIT    485.48     0  02:51      1.54    1.13    0.92
  YS02001788YS02001790 CONDUIT    497.91     0  03:00      2.08    0.37    0.97
  YS02001790YS02001791 CONDUIT    484.81     0  02:52      2.47    0.53    1.00
  YS02001791YS02001793 CONDUIT    721.93     0  02:55      5.01    0.31    1.00
  YS02001910YS02001907 CONDUIT    155.84     0  02:58      0.49    0.09    0.85
  YS02001786YS02001788 CONDUIT    485.12     0  02:51      2.02    0.93    0.92
  YS02001915YS02001910 CONDUIT    155.56     0  02:56      0.45    0.08    0.64
  YS02001918YS02001915 CONDUIT     54.24     0  03:06      0.44    0.03    0.36
  YS02001923YS02001920 CONDUIT     48.24     0  03:01      0.53    0.02    0.18
  YS02001926YS02001923 CONDUIT     48.20     0  03:01      0.58    0.07    0.16
  YS02001929YS02001926 CONDUIT     48.23     0  03:01      0.63    0.02    0.15
  YS02001920YS02001918 CONDUIT     51.72     0  03:03      0.53    0.05    0.22
  YS02001629YS02163301 CONDUIT    118.64     0  03:03      0.15    0.15    1.00
  YS02001619YS02001622 CONDUIT    161.32     0  03:25      0.71    0.24    1.00
  YS02001622YS02001625 CONDUIT    220.94     0  03:24      0.30    0.12    1.00
  YS02001625YS02001629 CONDUIT    220.01     0  03:24      0.29    0.10    1.00
  YS02163301YS02001633 CONDUIT    118.12     0  03:03      0.15    0.11    1.00
  YS02163601YS02164001 CONDUIT    222.18     0  03:03      0.28    0.20    1.00
  YS02164001YS02001641 CONDUIT    221.64     0  03:03      0.28    0.30    1.00
  YS02001641YS02001644 CONDUIT    221.65     0  03:03      0.28    0.72    1.00
  YS02001647YS02001649 CONDUIT    331.60     0  02:42      0.42    0.18    1.00
  YS02006553YS02006556 CONDUIT    339.11     0  02:50      0.45    0.29    0.93
  YS02006556YS02006558 CONDUIT    344.94     0  02:56      0.45    0.27    0.96
  YSB6556YSB1171       CONDUIT     18.25     0  02:17      0.07    0.02    0.63
  YS02001907YS02006553 CONDUIT    339.26     0  02:51      0.38    0.40    1.00
  YS02006558YS02006561 CONDUIT    525.25     0  02:49      2.80    1.16    0.64
  YS02001633YS02163601 CONDUIT    222.98     0  03:03      0.28    0.23    1.00
  YS02001644YS02001647 CONDUIT    327.14     0  02:59      0.42    0.19    1.00
  YS02001745YS02001748 CONDUIT    294.40     0  04:06      1.53    0.11    0.87
  YS02001748YS02001751 CONDUIT    415.83     0  03:15      1.18    0.21    1.00
  YS02001751YS02001754 CONDUIT    194.21     0  03:16      1.02    0.09    1.00
  YS02001754YS02001757 CONDUIT    201.60     0  03:16      0.33    0.08    1.00
  YS02001882YS02001884 CONDUIT      5.21     0  02:07      0.06    0.01    0.58
  YS02001884YS02001887 CONDUIT     14.84     0  02:09      0.06    0.02    0.67
  YS02001890YS02001895 CONDUIT    180.65     0  02:38      0.35    0.08    0.64
  YS02001895YS02001898 CONDUIT    180.48     0  02:49      0.50    0.31    0.50
  YS02001898YS02001901 CONDUIT    181.94     0  02:51      0.39    0.12    0.58
  YS02001901YS02001904 CONDUIT    182.40     0  02:51      0.35    0.28    0.64
  YS02001904YS02001907 CONDUIT    184.26     0  02:50      0.28    0.06    0.79
  YS02001887YS02001890 CONDUIT    180.95     0  02:39      0.30    0.31    0.73
  YS02001652YS02001649 CONDUIT    227.43     0  03:01      0.34    0.11    1.00
  YS02001655YS02001652 CONDUIT    228.06     0  03:01      1.09    0.11    1.00
  YS02001658YS02001655 CONDUIT    456.40     0  03:00      1.36    0.19    1.00
  YS02001661YS02001658 CONDUIT    292.14     0  03:55      1.59    0.11    0.91
  YS02001664YS02001661 CONDUIT    228.09     0  05:08      1.34    0.07    0.60
  YSB1154YSB6556       CONDUIT     17.93     0  02:15      0.19    0.03    0.52
  YSB1174YSB1171       CONDUIT     16.14     0  02:09      0.07    0.02    0.64
  YSB1171HS02004479    CONDUIT     33.36     0  02:15      0.54    0.02    0.50
  HS02004881HS02006253 CONDUIT     55.32     0  02:15      1.91    0.01    0.15
  YS02001793JiankangQianchi CONDUIT   1151.37     0  02:54     13.02    0.09    1.00
  YS02001757CaochengTiaoxuchi CONDUIT    827.99     0  02:55      1.75    0.36    1.00
  WSF200WS02003060     CONDUIT    554.31     0  02:33      2.19    0.12    0.29
  1                    CONDUIT    586.31     0  02:39      2.87    0.20    0.31
  2                    CONDUIT      4.56     0  02:31      1.94    0.01    0.07
  3                    CONDUIT    250.55     0  00:00      8.26    0.40    0.46
  4                    CONDUIT      0.00     0  00:00      0.00    0.00    0.00
  CC-Pump-1            PUMP       200.00     0  02:16              1.00
  CC-Pump-2            PUMP         0.00     0  00:00              0.00
  JK-Pump-1            PUMP       300.00     0  02:19              1.00
  JK-Pump-2            PUMP       300.00     0  00:00              1.00
  XR-Pump-1            PUMP         0.00     0  00:00              0.00
  XR-Pump-2            PUMP        95.00     0  00:00              1.00
  XR-Pump-3            PUMP         0.00     0  00:00              0.00
  XR-Pump-4            PUMP         0.00     0  00:00              0.00
  
  
  ***************************
  Flow Classification Summary
  ***************************
  
  -------------------------------------------------------------------------------------
                      Adjusted    ---------- Fraction of Time in Flow Class ---------- 
                       /Actual         Up    Down  Sub   Sup   Up    Down  Norm  Inlet 
  Conduit               Length    Dry  Dry   Dry   Crit  Crit  Crit  Crit  Ltd   Ctrl  
  -------------------------------------------------------------------------------------
  WS02003066WSF200        1.00   0.06  0.00  0.00  0.00  0.94  0.00  0.00  0.70  0.00
  WS02006287WS02006284    1.00   0.04  0.01  0.00  0.68  0.27  0.00  0.00  0.76  0.00
  WS02006284WS02006280    1.00   0.05  0.00  0.00  0.00  0.00  0.00  0.95  0.00  0.00
  WS02006280WS02006229    1.00   0.05  0.00  0.00  0.00  0.00  0.00  0.95  0.00  0.00
  WS02006229WS02006228    1.00   0.00  0.00  0.00  0.99  0.00  0.00  0.01  0.00  0.00
  WS02006256WS02006235    1.00   0.00  0.00  0.00  1.00  0.00  0.00  0.00  0.00  0.00
  WS02006253WS02006251    1.00   0.03  0.01  0.00  0.96  0.00  0.00  0.00  0.00  0.00
  WS02006252WS02006251    1.00   0.08  0.00  0.00  0.00  0.00  0.92  0.00  0.00  0.00
  WS02006251WS02006249    1.00   0.00  0.00  0.00  1.00  0.00  0.00  0.00  0.25  0.00
  WS02006249WS02006248    1.00   0.00  0.02  0.00  0.92  0.00  0.06  0.00  0.00  0.00
  WS02006248WS02006247    1.00   0.02  0.00  0.00  0.97  0.00  0.00  0.00  0.15  0.00
  WS02006247WS02006245    1.00   0.02  0.00  0.00  0.98  0.00  0.00  0.00  0.00  0.00
  WS02006245WS02006243    1.00   0.01  0.00  0.00  0.94  0.00  0.00  0.04  0.01  0.00
  WS02006243WS02006242    1.00   0.01  0.00  0.00  0.99  0.00  0.00  0.00  0.26  0.00
  WS02006242WS02006240    1.00   0.00  0.00  0.00  1.00  0.00  0.00  0.00  0.00  0.00
  WS02006240WS02006239    1.00   0.00  0.00  0.00  0.95  0.00  0.00  0.04  0.01  0.00
  WS02006239WS02006238    1.00   0.00  0.00  0.00  1.00  0.00  0.00  0.00  0.01  0.00
  WS02006238WS02006235    1.00   0.00  0.00  0.00  1.00  0.00  0.00  0.00  0.00  0.00
  WS02006235WS02006234    1.00   0.00  0.00  0.00  0.95  0.00  0.05  0.00  0.00  0.00
  WS02006234WS02006232    1.00   0.00  0.00  0.00  1.00  0.00  0.00  0.00  0.15  0.00
  WS02006232WS02006231    1.00   0.00  0.00  0.00  0.99  0.00  0.00  0.00  0.00  0.00
  WS02006231WS02006230    1.00   0.00  0.00  0.00  0.40  0.00  0.59  0.00  0.00  0.00
  WS02006230WS02006229    1.00   0.00  0.00  0.00  0.98  0.00  0.00  0.02  0.01  0.00
  WS02006228WS02006109    1.00   0.00  0.00  0.00  1.00  0.00  0.00  0.00  0.00  0.00
  WS02006116WS02004401    1.00   0.03  0.00  0.00  0.97  0.00  0.00  0.00  0.00  0.00
  WS02006115WS02006116    1.00   0.03  0.00  0.00  0.97  0.00  0.00  0.01  0.00  0.00
  WS02006113WS02006111    1.00   0.02  0.00  0.00  0.00  0.98  0.00  0.00  0.10  0.00
  WS02006112WS02006115    1.00   0.02  0.00  0.00  0.97  0.00  0.00  0.00  0.00  0.00
  WS02006111WS02006112    1.00   0.02  0.00  0.00  0.97  0.00  0.00  0.00  0.98  0.00
  WS02006110WS02006113    1.00   0.01  0.01  0.00  0.98  0.00  0.00  0.00  0.00  0.00
  WS02006109WS02006110    1.00   0.00  0.01  0.00  0.98  0.00  0.01  0.00  0.00  0.00
  WS02004411WS02004412    1.00   0.04  0.00  0.00  0.96  0.00  0.00  0.00  0.00  0.00
  WS02004401WS02004402    1.00   0.03  0.00  0.00  0.97  0.00  0.00  0.00  0.00  0.00
  WS02004413WS02003067    1.00   0.04  0.01  0.00  0.00  0.00  0.94  0.00  0.00  0.00
  WS02004412WS02004413    1.00   0.04  0.00  0.00  0.96  0.00  0.00  0.00  0.03  0.00
  WS02004410WS02004411    1.00   0.04  0.00  0.00  0.96  0.00  0.00  0.00  0.04  0.00
  WS02004409WS02004410    1.00   0.04  0.00  0.00  0.96  0.00  0.00  0.00  0.04  0.00
  WS02004407WS02004409    1.00   0.04  0.00  0.00  0.96  0.00  0.00  0.00  0.89  0.00
  WS02004406WS02004407    1.00   0.00  0.04  0.00  0.96  0.00  0.00  0.00  0.00  0.00
  WS02004405WS02004406    1.00   0.00  0.00  0.00  1.00  0.00  0.00  0.00  0.01  0.00
  WS02004404WS02004405    1.00   0.00  0.00  0.00  1.00  0.00  0.00  0.00  0.00  0.00
  WS02004403WS02004404    1.00   0.00  0.03  0.00  0.97  0.00  0.00  0.00  0.01  0.00
  WS02004402WS02004403    1.00   0.03  0.00  0.00  0.97  0.00  0.00  0.00  0.00  0.00
  WS02004139WS02001211    1.00   0.00  0.00  0.00  0.99  0.00  0.01  0.00  0.00  0.00
  WS02004138WS02004139    1.00   0.00  0.95  0.00  0.03  0.01  0.00  0.00  1.00  0.00
  WS02003067WS02003066    1.00   0.06  0.00  0.00  0.94  0.00  0.00  0.00  0.00  0.00
  WS02001213WS02003059    1.00   0.00  0.01  0.00  0.99  0.00  0.00  0.00  0.00  0.00
  WS02001212WS02001213    1.00   0.01  0.00  0.00  0.91  0.00  0.09  0.00  0.00  0.00
  WS02001211WS02001212    1.00   0.00  0.01  0.00  0.99  0.00  0.00  0.00  0.00  0.00
  WS02003072WS02003073    1.00   0.00  0.00  0.00  0.00  0.00  0.00  1.00  0.00  0.00
  WS02003069WS02003072    1.00   0.00  0.00  0.00  0.99  0.01  0.00  0.00  0.78  0.00
  WS02003060WS02003069    1.00   0.00  0.00  0.00  0.97  0.03  0.00  0.00  0.25  0.00
  WS02003059WS02003060    1.00   0.00  0.00  0.00  1.00  0.00  0.00  0.00  0.02  0.00
  HS02004901HS02004770    1.00   0.04  0.00  0.00  0.95  0.00  0.00  0.00  0.02  0.00
  HS02004876HS02004881    1.00   0.02  0.00  0.00  0.98  0.00  0.00  0.00  0.00  0.00
  HS02004870HS02004876    1.00   0.01  0.00  0.00  0.99  0.00  0.00  0.00  0.95  0.00
  HS02004842HS02004848    1.00   0.00  0.05  0.00  0.95  0.00  0.00  0.00  0.67  0.00
  HS02004837HS02004842    1.00   0.00  0.00  0.00  0.99  0.01  0.00  0.00  0.11  0.00
  HS02004830HS02004837    1.00   0.00  0.00  0.00  1.00  0.00  0.00  0.00  0.99  0.00
  HS02004824HS02004830    1.00   0.00  0.00  0.00  1.00  0.00  0.00  0.00  0.00  0.00
  HS02004817HS02004824    1.00   0.00  0.00  0.00  1.00  0.00  0.00  0.00  1.00  0.00
  HS02004770HS02004777    1.00   0.00  0.05  0.00  0.95  0.00  0.00  0.00  0.07  0.00
  HS02004799HS02004480    1.00   0.00  0.02  0.00  0.94  0.00  0.03  0.00  0.00  0.00
  HS02004792HS02004799    1.00   0.00  0.00  0.00  0.99  0.01  0.00  0.00  0.98  0.00
  HS02004788HS02004792    1.00   0.00  0.00  0.00  0.99  0.01  0.00  0.00  0.98  0.00
  HS02004785HS02004788    1.00   0.00  0.00  0.00  1.00  0.00  0.00  0.00  0.00  0.00
  HS02004777HS02004785    1.00   0.00  0.00  0.00  1.00  0.00  0.00  0.00  0.20  0.00
  HS02004480HS02004478    1.00   0.05  0.00  0.00  0.73  0.00  0.00  0.22  0.00  0.00
  HS02004479HS02004480    1.00   0.03  0.00  0.00  0.97  0.00  0.00  0.00  0.15  0.00
  HS02004862HS02004870    1.00   0.00  0.00  0.00  1.00  0.00  0.00  0.00  0.06  0.00
  HS02004848HS02004852    1.00   0.05  0.00  0.00  0.95  0.00  0.00  0.00  0.71  0.00
  HS02004856HS02004862    1.00   0.00  0.07  0.00  0.93  0.00  0.00  0.00  0.75  0.00
  HS02004852HS02004856    1.00   0.04  0.01  0.00  0.95  0.00  0.00  0.00  0.83  0.00
  HS02004802HS02004478    1.00   0.05  0.00  0.00  0.95  0.00  0.00  0.00  0.01  0.00
  HS02004478WS02006287    1.00   0.05  0.00  0.00  0.83  0.11  0.00  0.00  0.74  0.00
  HS02004817HS02004807    1.00   0.00  0.05  0.00  0.95  0.00  0.00  0.00  0.00  0.00
  HS02004807HS02004802    1.00   0.05  0.00  0.00  0.95  0.00  0.00  0.00  0.01  0.00
  YS02001759YS02001757    1.00   0.00  0.00  0.00  1.00  0.00  0.00  0.00  0.17  0.00
  YS02001762YS02001759    1.00   0.00  0.00  0.00  1.00  0.00  0.00  0.00  0.04  0.00
  YS02001765YS02001762    1.00   0.00  0.00  0.00  1.00  0.00  0.00  0.00  0.21  0.00
  YS02001770YS02001767    1.00   0.00  0.00  0.00  1.00  0.00  0.00  0.00  0.00  0.00
  YS02001774YS02001770    1.00   0.00  0.05  0.00  0.95  0.00  0.00  0.00  0.06  0.00
  YS02001779YS02001774    1.00   0.00  0.00  0.00  1.00  0.00  0.00  0.00  0.26  0.00
  YS02001649YS02001757    1.00   0.00  0.00  0.00  1.00  0.00  0.00  0.00  0.19  0.00
  YS02001767YS02001765    1.00   0.00  0.00  0.00  1.00  0.00  0.00  0.00  0.01  0.00
  YS02006561YS02001783    1.00   0.07  0.00  0.00  0.16  0.77  0.00  0.00  0.65  0.00
  YS02001783YS02001784    1.00   0.00  0.07  0.00  0.93  0.00  0.00  0.00  0.00  0.00
  YS02001784YS02001785    1.00   0.00  0.00  0.00  1.00  0.00  0.00  0.00  0.24  0.00
  YS02001788YS02001790    1.00   0.00  0.00  0.00  0.29  0.71  0.00  0.00  0.70  0.00
  YS02001790YS02001791    1.00   0.00  0.00  0.00  0.25  0.75  0.00  0.00  0.46  0.00
  YS02001791YS02001793    1.00   0.00  0.00  0.00  0.26  0.74  0.00  0.00  0.03  0.00
  YS02001910YS02001907    1.00   0.00  0.00  0.00  0.97  0.00  0.00  0.03  0.13  0.00
  YS02001786YS02001788    1.00   0.00  0.00  0.00  0.26  0.74  0.00  0.00  0.00  0.00
  YS02001915YS02001910    1.00   0.00  0.00  0.00  0.99  0.01  0.00  0.00  0.23  0.00
  YS02001918YS02001915    1.00   0.00  0.01  0.00  0.98  0.01  0.00  0.00  0.68  0.00
  YS02001923YS02001920    1.00   0.00  0.00  0.00  1.00  0.00  0.00  0.00  1.00  0.00
  YS02001926YS02001923    1.00   0.00  0.03  0.00  0.00  0.00  0.97  0.00  0.00  0.00
  YS02001929YS02001926    1.00   0.00  0.05  0.00  0.95  0.00  0.00  0.00  0.87  0.00
  YS02001920YS02001918    1.00   0.00  0.01  0.00  0.99  0.00  0.00  0.00  0.00  0.00
  YS02001629YS02163301    1.00   0.06  0.00  0.00  0.94  0.00  0.00  0.00  0.00  0.00
  YS02001619YS02001622    1.00   0.04  0.00  0.00  0.96  0.00  0.00  0.00  0.00  0.00
  YS02001622YS02001625    1.00   0.05  0.00  0.00  0.95  0.00  0.00  0.00  0.12  0.00
  YS02001625YS02001629    1.00   0.05  0.02  0.00  0.92  0.00  0.01  0.00  0.00  0.00
  YS02163301YS02001633    1.00   0.00  0.06  0.00  0.94  0.00  0.00  0.00  0.00  0.00
  YS02163601YS02164001    1.00   0.00  0.04  0.00  0.96  0.00  0.00  0.00  0.00  0.00
  YS02164001YS02001641    1.00   0.01  0.03  0.00  0.96  0.00  0.00  0.00  0.07  0.00
  YS02001641YS02001644    1.00   0.00  0.01  0.00  0.99  0.00  0.00  0.00  0.00  0.00
  YS02001647YS02001649    1.00   0.00  0.07  0.00  0.93  0.00  0.00  0.00  0.01  0.00
  YS02006553YS02006556    1.00   0.01  0.00  0.00  0.99  0.00  0.00  0.00  0.03  0.00
  YS02006556YS02006558    1.00   0.00  0.00  0.00  1.00  0.00  0.00  0.00  0.00  0.00
  YSB6556YSB1171          1.00   0.03  0.01  0.00  0.96  0.00  0.00  0.00  0.00  0.00
  YS02001907YS02006553    1.00   0.00  0.02  0.00  0.97  0.00  0.00  0.00  0.00  0.00
  YS02006558YS02006561    1.00   0.07  0.00  0.00  0.00  0.93  0.00  0.00  0.61  0.00
  YS02001633YS02163601    1.00   0.00  0.01  0.00  0.99  0.00  0.00  0.00  0.19  0.00
  YS02001644YS02001647    1.00   0.00  0.07  0.00  0.93  0.00  0.00  0.00  0.00  0.00
  YS02001745YS02001748    1.00   0.00  0.00  0.00  0.89  0.01  0.00  0.10  0.08  0.00
  YS02001748YS02001751    1.00   0.00  0.00  0.00  0.98  0.02  0.00  0.00  0.23  0.00
  YS02001751YS02001754    1.00   0.00  0.00  0.00  0.93  0.00  0.00  0.07  0.01  0.00
  YS02001754YS02001757    1.00   0.00  0.00  0.00  0.99  0.01  0.00  0.00  0.26  0.00
  YS02001882YS02001884    1.00   0.06  0.00  0.00  0.94  0.00  0.00  0.00  0.00  0.00
  YS02001884YS02001887    1.00   0.03  0.01  0.00  0.96  0.00  0.00  0.00  0.00  0.00
  YS02001890YS02001895    1.00   0.00  0.06  0.00  0.94  0.00  0.00  0.00  0.00  0.00
  YS02001895YS02001898    1.00   0.06  0.00  0.00  0.93  0.00  0.01  0.00  0.00  0.00
  YS02001898YS02001901    1.00   0.06  0.00  0.00  0.94  0.00  0.00  0.00  0.02  0.00
  YS02001901YS02001904    1.00   0.06  0.00  0.00  0.94  0.00  0.00  0.00  0.00  0.00
  YS02001904YS02001907    1.00   0.00  0.06  0.00  0.94  0.00  0.00  0.00  0.00  0.00
  YS02001887YS02001890    1.00   0.00  0.00  0.00  0.97  0.00  0.02  0.00  0.00  0.00
  YS02001652YS02001649    1.00   0.00  0.00  0.00  1.00  0.00  0.00  0.00  0.25  0.00
  YS02001655YS02001652    1.00   0.00  0.00  0.00  0.93  0.00  0.00  0.07  0.01  0.00
  YS02001658YS02001655    1.00   0.00  0.05  0.00  0.92  0.02  0.00  0.00  0.08  0.00
  YS02001661YS02001658    1.00   0.05  0.00  0.00  0.89  0.06  0.00  0.00  0.09  0.00
  YS02001664YS02001661    1.00   0.04  0.00  0.00  0.83  0.13  0.00  0.00  0.38  0.00
  YSB1154YSB6556          1.00   0.04  0.00  0.00  0.96  0.00  0.00  0.00  0.02  0.00
  YSB1174YSB1171          1.00   0.03  0.01  0.00  0.96  0.00  0.00  0.00  0.00  0.00
  YSB1171HS02004479       1.00   0.03  0.00  0.00  0.97  0.00  0.00  0.00  0.13  0.00
  HS02004881HS02006253    1.00   0.03  0.00  0.00  0.91  0.00  0.00  0.05  0.71  0.00
  YS02001793JiankangQianchi    1.00   0.00  0.00  0.00  0.45  0.55  0.00  0.00  0.15  0.00
  YS02001757CaochengTiaoxuchi    1.00   0.00  0.08  0.00  0.92  0.00  0.00  0.00  0.00  0.00
  WSF200WS02003060        1.00   0.00  0.06  0.00  0.01  0.92  0.00  0.00  0.06  0.00
  1                       1.00   0.00  0.00  0.00  0.00  1.00  0.00  0.00  0.31  0.00
  2                       1.00   0.95  0.00  0.00  0.00  0.05  0.00  0.00  0.01  0.00
  3                       1.00   0.24  0.00  0.00  0.00  0.76  0.00  0.00  0.26  0.00
  4                       1.00   1.00  0.00  0.00  0.00  0.00  0.00  0.00  0.00  0.00
  
  
  *************************
  Conduit Surcharge Summary
  *************************
  
  ----------------------------------------------------------------------------
                                                           Hours        Hours 
                         --------- Hours Full --------   Above Full   Capacity
  Conduit                Both Ends  Upstream  Dnstream   Normal Flow   Limited
  ----------------------------------------------------------------------------
  WS02006229WS02006228        1.05      1.11      1.05      4.91         1.05
  WS02006256WS02006235        5.76      5.77      6.52      3.44         0.01
  WS02006249WS02006248        0.01      0.01      0.01      5.56         0.01
  WS02006247WS02006245        0.01      0.01      0.01      5.57         0.01
  WS02006243WS02006242        0.01      0.01      0.14      0.01         0.01
  WS02006242WS02006240        0.01      0.01      0.33      0.01         0.01
  WS02006240WS02006239        0.01      0.01      0.13      0.01         0.01
  WS02006239WS02006238        0.39      0.39      0.49      0.01         0.01
  WS02006238WS02006235        0.46      0.46      0.60      0.01         0.01
  WS02006235WS02006234        0.19      0.19      0.41      5.78         0.01
  WS02006234WS02006232        0.33      0.33      0.78      0.01         0.01
  WS02006232WS02006231        0.01      0.01      0.78      0.01         0.01
  WS02006231WS02006230        0.01      0.01      0.01      5.77         0.01
  WS02006230WS02006229        1.56      3.80      1.56      5.86         1.56
  WS02006228WS02006109        1.08      1.26      1.08      5.65         1.08
  WS02006112WS02006115        0.01      0.01      0.52      0.01         0.01
  WS02006111WS02006112        0.01      0.01      5.58      0.01         0.01
  WS02006110WS02006113        0.01      0.01      1.16      0.01         0.01
  WS02006109WS02006110        0.30      0.30      1.26      0.31         0.01
  WS02004405WS02004406        0.01      0.01      0.01      0.41         0.01
  WS02004404WS02004405        0.01      0.01      0.01      5.67         0.01
  WS02003072WS02003073        0.01      0.01      0.01      0.81         0.01
  YS02001759YS02001757        5.43      5.43      5.49      0.01         0.01
  YS02001762YS02001759        5.40      5.40      5.43      0.01         0.03
  YS02001765YS02001762        5.37      5.37      5.40      0.01         0.02
  YS02001770YS02001767        5.34      5.34      5.34      0.01         0.79
  YS02001774YS02001770        5.30      5.30      5.39      0.01         0.01
  YS02001779YS02001774        4.62      4.62      5.39      0.01         0.01
  YS02001649YS02001757        5.41      5.41      5.49      0.01         0.01
  YS02001767YS02001765        5.34      5.34      5.37      0.01         0.03
  YS02001784YS02001785        0.01      0.01      0.01      0.71         0.01
  YS02001788YS02001790        0.01      0.01      1.04      0.01         0.01
  YS02001790YS02001791        1.04      1.04      1.18      0.01         0.01
  YS02001791YS02001793        1.18      1.18      1.50      0.01         0.01
  YS02001629YS02163301        5.30      5.30      5.33      0.01         0.01
  YS02001619YS02001622        4.01      4.01      4.12      0.01         0.02
  YS02001622YS02001625        4.12      4.12      5.17      0.01         0.01
  YS02001625YS02001629        4.03      4.03      5.17      0.01         0.01
  YS02163301YS02001633        5.33      5.33      5.38      0.01         0.01
  YS02163601YS02164001        5.37      5.37      5.40      0.01         0.01
  YS02164001YS02001641        5.37      5.37      5.38      0.01         0.01
  YS02001641YS02001644        5.38      5.38      5.38      0.01         1.03
  YS02001647YS02001649        5.12      5.12      5.41      0.01         0.01
  YS02001907YS02006553        0.73      0.73      0.97      0.01         0.01
  YS02006558YS02006561        0.01      0.01      0.01      0.46         0.01
  YS02001633YS02163601        5.36      5.36      5.40      0.01         0.01
  YS02001644YS02001647        5.12      5.12      5.38      0.01         0.01
  YS02001745YS02001748        0.01      0.01      2.83      0.01         0.01
  YS02001748YS02001751        3.55      3.55      4.16      0.01         0.01
  YS02001751YS02001754        4.16      4.16      4.80      0.01         0.01
  YS02001754YS02001757        5.12      5.12      5.49      0.01         0.01
  YS02001652YS02001649        5.15      5.15      5.41      0.01         0.01
  YS02001655YS02001652        4.28      4.28      5.01      0.01         0.01
  YS02001658YS02001655        2.91      2.91      4.28      0.01         0.01
  YS02001661YS02001658        0.01      0.01      2.91      0.01         0.01
  YS02001793JiankangQianchi        1.42      1.42      2.57      0.01         0.01
  YS02001757CaochengTiaoxuchi        3.72      3.72      5.49      0.01         0.01
  
  
  ***************
  Pumping Summary
  ***************
  
  ---------------------------------------------------------------------------------------------------------
                                                  Min       Avg       Max     Total     Power    % Time Off
                        Percent   Number of      Flow      Flow      Flow    Volume     Usage    Pump Curve
  Pump                 Utilized   Start-Ups       LPS       LPS       LPS  10^6 ltr     Kw-hr    Low   High
  ---------------------------------------------------------------------------------------------------------
  CC-Pump-1               71.84           1      0.00    199.06    200.00     4.025      6.89    0.0   11.0
  CC-Pump-2                0.00           0      0.00      0.00      0.00     0.000      0.00    0.0    0.0
  JK-Pump-1               93.60           1      0.00    194.12    300.00     4.146     47.58    0.0    0.0
  JK-Pump-2                8.52           1      0.00    201.18    300.00     0.181      2.83    0.0    0.0
  XR-Pump-1                0.00           0      0.00      0.00      0.00     0.000      0.00    0.0    0.0
  XR-Pump-2                8.52           1      0.00     90.15     95.00     0.200      1.85    0.0    0.0
  XR-Pump-3                0.00           0      0.00      0.00      0.00     0.000      0.00    0.0    0.0
  XR-Pump-4                0.00           0      0.00      0.00      0.00     0.000      0.00    0.0    0.0
  

  Analysis begun on:  Thu Jan  6 10:16:23 2022
  Analysis ended on:  Thu Jan  6 10:16:25 2022
  Total elapsed time: 00:00:02