
  EPA STORM WATER MANAGEMENT MODEL - VERSION 5.1 (Build 5.3.0.dev0)
  --------------------------------------------------------------

  WARNING 04: minimum elevation drop used for Conduit WS02004404WS02004405
  WARNING 03: negative offset ignored for Link YS02001904YS02001907
  
  *********************************************************
  NOTE: The summary statistics displayed in this report are
  based on results found at every computational time step,  
  not just on results from each reporting time step.
  *********************************************************
  
  ****************
  Analysis Options
  ****************
  Flow Units ............... LPS
  Process Models:
    Rainfall/Runoff ........ YES
    RDII ................... NO
    Snowmelt ............... NO
    Groundwater ............ NO
    Flow Routing ........... YES
    Ponding Allowed ........ NO
    Water Quality .......... NO
  Infiltration Method ...... HORTON
  Flow Routing Method ...... DYNWAVE
  Surcharge Method ......... EXTRAN
  Starting Date ............ 08/28/2015 08:00:00
  Ending Date .............. 08/28/2015 15:50:00
  Antecedent Dry Days ...... 8.0
  Report Time Step ......... 00:01:00
  Wet Time Step ............ 00:01:00
  Dry Time Step ............ 00:01:00
  Routing Time Step ........ 5.00 sec
  Variable Time Step ....... YES
  Maximum Trials ........... 8
  Number of Threads ........ 4
  Head Tolerance ........... 0.001500 m
  
  
  **************************        Volume         Depth
  Runoff Quantity Continuity     hectare-m            mm
  **************************     ---------       -------
  Total Precipitation ......         7.641        16.729
  Evaporation Loss .........         0.000         0.000
  Infiltration Loss ........         1.880         4.117
  Surface Runoff ...........         4.668        10.221
  Final Storage ............         1.093         2.393
  Continuity Error (%) .....        -0.013
  
  
  **************************        Volume        Volume
  Flow Routing Continuity        hectare-m      10^6 ltr
  **************************     ---------     ---------
  Dry Weather Inflow .......         0.616         6.165
  Wet Weather Inflow .......         4.667        46.671
  Groundwater Inflow .......         0.000         0.000
  RDII Inflow ..............         0.000         0.000
  External Inflow ..........         0.102         1.024
  External Outflow .........         2.075        20.752
  Flooding Loss ............         2.807        28.067
  Evaporation Loss .........         0.000         0.000
  Exfiltration Loss ........         0.000         0.000
  Initial Stored Volume ....         0.076         0.761
  Final Stored Volume ......         0.655         6.548
  Continuity Error (%) .....        -1.369
  
  
  *************************
  Highest Continuity Errors
  *************************
  Node HS02004842 (12.71%)
  Node YS02001884 (12.20%)
  Node JK-storage (-6.51%)
  Node HS02004817 (2.32%)
  Node YSB1171 (2.18%)
  
  
  ***************************
  Time-Step Critical Elements
  ***************************
  Link WS02006252WS02006251 (58.01%)
  Link 3 (34.67%)
  Link WS02006238WS02006235 (2.63%)
  
  
  ********************************
  Highest Flow Instability Indexes
  ********************************
  Link YS02163601YS02164001 (48)
  Link YS02163301YS02001633 (47)
  Link YS02001629YS02163301 (46)
  Link YS02001619YS02001622 (45)
  Link YS02164001YS02001641 (44)
  
  
  *************************
  Routing Time Step Summary
  *************************
  Minimum Time Step           :     0.13 sec
  Average Time Step           :     0.75 sec
  Maximum Time Step           :     5.00 sec
  Percent in Steady State     :    -0.00
  Average Iterations per Step :     4.90
  Percent Not Converging      :    22.23
  
  
  ***************************
  Subcatchment Runoff Summary
  ***************************
  
  ------------------------------------------------------------------------------------------------------------------------------
                            Total      Total      Total      Total     Imperv       Perv      Total       Total     Peak  Runoff
                           Precip      Runon       Evap      Infil     Runoff     Runoff     Runoff      Runoff   Runoff   Coeff
  Subcatchment                 mm         mm         mm         mm         mm         mm         mm    10^6 ltr      LPS
  ------------------------------------------------------------------------------------------------------------------------------
  sub0                      16.73       0.00       0.00       0.97      14.29       0.20      14.50        0.01     3.66   0.867
  sub1                      16.73       0.00       0.00       1.58      13.63       0.26      13.89        0.09    24.51   0.830
  sub2                      16.73       0.00       0.00       5.80       9.63       0.39      10.02        0.09    22.91   0.599
  sub3                      16.73       0.00       0.00       5.88       9.59       0.31       9.90        0.22    50.49   0.592
  sub4                      16.73       0.00       0.00       1.65      13.47       0.19      13.66        0.28    60.01   0.817
  sub5                      16.73       0.00       0.00       0.99      14.24       0.18      14.42        0.16    43.61   0.862
  sub7                      16.73       0.00       0.00       1.26      13.97       0.24      14.21        0.05    13.82   0.849
  sub8                      16.73       0.00       0.00       1.27      13.96       0.23      14.19        0.09    25.44   0.848
  sub9                      16.73       0.00       0.00       1.27      13.96       0.23      14.19        0.07    19.02   0.848
  sub10                     16.73       0.00       0.00       1.13      14.10       0.21      14.30        0.16    42.73   0.855
  sub11                     16.73       0.00       0.00       1.12      14.11       0.21      14.33        0.17    47.25   0.857
  sub12                     16.73       0.00       0.00       1.83      13.37       0.35      13.71        0.12    35.87   0.820
  sub14                     16.73       0.00       0.00       1.27      13.95       0.23      14.19        0.14    37.43   0.848
  sub15                     16.73       0.00       0.00       4.53      10.73       0.49      11.22        0.19    51.47   0.671
  sub16                     16.73       0.00       0.00       4.88      10.29       0.64      10.93        0.11    32.57   0.653
  sub17                     16.73       0.00       0.00       4.74      10.44       0.61      11.05        0.09    26.81   0.661
  sub22                     16.73       0.00       0.00       6.60       8.75       0.59       9.34        0.59   160.16   0.558
  sub23                     16.73       0.00       0.00       5.59       9.67       0.60      10.27        0.49   134.74   0.614
  sub60                     16.73       0.00       0.00       1.94      11.65       0.06      11.71        3.55   386.89   0.700
  sub61                     16.73       0.00       0.00       2.75      11.65       0.09      11.73        3.62   476.87   0.701
  sub62                     16.73       0.00       0.00       1.26      12.72       0.07      12.79        3.93   491.27   0.765
  sub63                     16.73       0.00       0.00       4.75      10.14       0.10      10.23        3.10   437.54   0.612
  sub64                     16.73       0.00       0.00       2.45      11.19       0.06      11.26        3.42   367.58   0.673
  sub65                     16.73       0.00       0.00       2.11      11.40       0.06      11.46        3.52   372.98   0.685
  sub66                     16.73       0.00       0.00       4.79       9.55       0.06       9.61        2.95   336.52   0.575
  sub67                     16.73       0.00       0.00       1.24      13.25       0.09      13.35        4.12   605.48   0.798
  sub68                     16.73       0.00       0.00       2.25      12.20       0.10      12.30        3.78   521.64   0.735
  sub69                     16.73       0.00       0.00       2.37      12.50       0.14      12.64        2.95   482.20   0.755
  sub70                     16.73      12.90       0.00       8.98      17.16       1.09      18.25        4.18   460.88   0.616
  sub71                     16.73       0.00       0.00       1.27      12.46       0.07      12.53        2.96   345.19   0.749
  sub72                     16.73       0.00       0.00       1.14      10.39       0.03      10.43        2.12   185.81   0.623
  sub73                     16.73      17.77       0.00       9.78      19.72       1.38      21.10        4.96   482.28   0.612
  sub74                     16.73       0.00       0.00      12.48       3.71       0.07       3.78        1.51   261.10   0.226
  
  
  ******************
  Node Depth Summary
  ******************
  
  ---------------------------------------------------------------------------------
                                 Average  Maximum  Maximum  Time of Max    Reported
                                   Depth    Depth      HGL   Occurrence   Max Depth
  Node                 Type       Meters   Meters   Meters  days hr:min      Meters
  ---------------------------------------------------------------------------------
  WS02001211           JUNCTION     0.64     0.81     5.65     0  02:10        0.81
  WS02001212           JUNCTION     0.37     0.54     5.60     0  02:11        0.54
  WS02001213           JUNCTION     0.61     0.81     5.57     0  02:11        0.80
  WS02003069           JUNCTION     0.45     0.66     5.24     0  02:12        0.66
  WS02003072           JUNCTION     0.52     0.71     5.08     0  02:13        0.71
  WS02003073           JUNCTION     0.31     0.44     4.50     0  02:13        0.44
  WS02003060           JUNCTION     0.40     0.58     5.51     0  02:12        0.58
  WS02003066           JUNCTION     0.25     0.36     5.91     0  01:57        0.36
  WS02003059           JUNCTION     0.68     0.86     5.55     0  02:11        0.86
  WS02003067           JUNCTION     0.61     0.79     6.11     0  01:57        0.79
  WS02004401           JUNCTION     0.74     1.11     7.11     0  01:54        1.11
  WS02004402           JUNCTION     0.77     1.12     7.08     0  01:54        1.12
  WS02004403           JUNCTION     0.78     1.11     7.04     0  01:54        1.11
  WS02004404           JUNCTION     0.86     1.16     7.01     0  01:54        1.16
  WS02004406           JUNCTION     0.86     1.11     6.94     0  01:55        1.11
  WS02004409           JUNCTION     0.55     0.86     6.63     0  01:56        0.86
  WS02004410           JUNCTION     0.57     0.86     6.58     0  01:56        0.86
  WS02004411           JUNCTION     0.58     0.85     6.53     0  01:56        0.85
  WS02004412           JUNCTION     0.59     0.84     6.48     0  01:56        0.84
  WS02004413           JUNCTION     0.75     0.98     6.45     0  01:57        0.98
  WS02004405           JUNCTION     0.85     1.14     6.99     0  01:55        1.14
  WS02006109           JUNCTION     0.83     1.27     7.89     0  01:55        1.26
  WS02006110           JUNCTION     0.80     1.11     7.70     0  01:54        1.11
  WS02006111           JUNCTION     0.26     0.62     7.32     0  01:54        0.62
  WS02006112           JUNCTION     0.92     1.39     7.28     0  01:54        1.39
  WS02006113           JUNCTION     0.38     0.62     7.51     0  01:54        0.62
  WS02006115           JUNCTION     0.64     1.07     7.21     0  01:54        1.07
  WS02006116           JUNCTION     0.72     1.12     7.16     0  01:54        1.12
  WS02006230           JUNCTION     0.83     1.68     8.42     0  01:44        1.38
  WS02006231           JUNCTION     0.56     1.12     8.24     0  01:44        1.01
  WS02006232           JUNCTION     0.70     1.22     8.26     0  01:44        1.11
  WS02006234           JUNCTION     0.62     1.18     8.34     0  01:44        1.05
  WS02006235           JUNCTION     0.65     1.16     8.33     0  01:44        1.05
  WS02006238           JUNCTION     0.68     1.18     8.32     0  01:44        1.08
  WS02006240           JUNCTION     0.57     1.25     8.54     0  01:44        0.90
  WS02006242           JUNCTION     0.63     1.55     8.82     0  01:44        0.94
  WS02006243           JUNCTION     0.51     1.48     8.90     0  01:44        0.81
  WS02006245           JUNCTION     0.48     1.09     8.57     0  01:45        0.76
  WS02006247           JUNCTION     0.50     1.47     8.97     0  01:45        0.76
  WS02006248           JUNCTION     0.44     0.69     8.28     0  01:45        0.69
  WS02006249           JUNCTION     0.47     0.69     8.29     0  01:50        0.69
  WS02006239           JUNCTION     0.63     1.51     8.72     0  01:44        1.00
  WS02006251           JUNCTION     0.46     0.78     8.45     0  01:50        0.77
  WS02006252           JUNCTION     0.39     0.59     8.83     0  06:24        0.59
  WS02006253           JUNCTION     0.49     0.81     8.46     0  01:50        0.81
  WS02006256           JUNCTION     1.08     1.21     8.15     0  02:40        1.21
  WS02004138           JUNCTION     0.14     0.19     7.44     0  00:50        0.19
  WS02004407           JUNCTION     0.25     0.37     6.68     0  01:55        0.37
  WS02006228           JUNCTION     0.84     1.39     8.04     0  01:54        1.38
  WS02006229           JUNCTION     0.83     1.42     8.12     0  01:54        1.42
  WS02006280           JUNCTION     0.08     0.25     8.52     0  01:55        0.25
  WS02006284           JUNCTION     0.39     0.64     9.04     0  01:55        0.64
  WS02006287           JUNCTION     0.12     0.38     9.33     0  01:54        0.38
  WSF200               JUNCTION     0.25     0.40     5.63     0  01:59        0.40
  HS02004901           JUNCTION     0.14     0.36    10.18     0  01:52        0.36
  HS02004881           JUNCTION     0.01     0.05     9.08     0  01:55        0.05
  HS02004876           JUNCTION     0.05     0.16     9.19     0  01:55        0.16
  HS02004870           JUNCTION     0.02     0.09     9.38     0  01:55        0.09
  HS02004862           JUNCTION     0.03     0.11     9.49     0  01:55        0.11
  HS02004856           JUNCTION     0.08     0.15     9.58     0  01:55        0.15
  HS02004852           JUNCTION     0.02     0.07     9.59     0  01:55        0.07
  HS02004848           JUNCTION     0.01     0.07     9.67     0  01:55        0.07
  HS02004842           JUNCTION     0.34     0.40     9.67     0  01:55        0.40
  HS02004837           JUNCTION     0.03     0.09     9.67     0  01:55        0.09
  HS02004830           JUNCTION     0.05     0.10     9.57     0  01:56        0.10
  HS02004824           JUNCTION     0.03     0.12     9.53     0  01:55        0.12
  HS02004817           JUNCTION     0.46     0.69     9.53     0  01:55        0.69
  HS02004807           JUNCTION     0.14     0.36     9.53     0  01:55        0.36
  HS02004802           JUNCTION     0.18     0.39     9.52     0  01:55        0.39
  HS02004799           JUNCTION     0.14     0.45     9.66     0  01:53        0.45
  HS02004792           JUNCTION     0.05     0.20     9.73     0  01:52        0.20
  HS02004788           JUNCTION     0.04     0.15    10.05     0  01:53        0.15
  HS02004785           JUNCTION     0.06     0.23    10.14     0  01:52        0.23
  HS02004777           JUNCTION     0.17     0.37    10.17     0  01:52        0.37
  HS02004770           JUNCTION     0.14     0.35    10.18     0  01:52        0.35
  HS02004480           JUNCTION     0.10     0.37     9.61     0  01:53        0.37
  HS02004479           JUNCTION     0.14     0.41     9.61     0  01:53        0.41
  HS02004478           JUNCTION     0.08     0.27     9.50     0  01:54        0.27
  YS02001745           JUNCTION     0.77     0.92     8.44     0  02:55        0.92
  YS02001748           JUNCTION     1.17     1.38     8.46     0  01:50        1.35
  YS02001751           JUNCTION     1.36     1.64     8.51     0  01:48        1.55
  YS02001754           JUNCTION     1.61     1.83     8.44     0  02:55        1.82
  YS02001762           JUNCTION     1.82     2.04     8.44     0  02:55        2.03
  YS02001765           JUNCTION     1.77     1.99     8.44     0  02:56        1.98
  YS02001767           JUNCTION     1.73     1.95     8.44     0  02:48        1.94
  YS02001770           JUNCTION     1.73     1.93     8.42     0  02:53        1.92
  YS02001774           JUNCTION     1.79     1.99     8.41     0  02:57        1.97
  YS02001779           JUNCTION     1.54     1.68     8.37     0  01:47        1.68
  YS02001882           JUNCTION     0.70     1.83     8.55     0  01:55        1.63
  YS02001884           JUNCTION     0.80     1.93     8.55     0  01:55        1.73
  YS02001759           JUNCTION     1.85     2.08     8.45     0  02:54        2.08
  YS02001887           JUNCTION     0.88     1.91     8.45     0  01:55        1.80
  YS02001890           JUNCTION     0.90     1.81     8.32     0  01:55        1.81
  YS02001898           JUNCTION     0.67     1.68     8.41     0  01:55        1.56
  YS02001901           JUNCTION     0.79     1.73     8.34     0  01:55        1.68
  YS02001904           JUNCTION     0.77     1.64     8.27     0  01:56        1.63
  YS02001907           JUNCTION     1.09     1.96     8.25     0  01:56        1.96
  YS02001910           JUNCTION     0.89     1.87     8.38     0  01:57        1.80
  YS02001915           JUNCTION     0.69     1.76     8.47     0  01:57        1.62
  YS02001918           JUNCTION     0.43     1.59     8.65     0  01:57        1.34
  YS02001619           JUNCTION     1.32     1.61     8.54     0  01:48        1.47
  YS02001629           JUNCTION     1.68     1.85     8.40     0  01:47        1.85
  YS02001641           JUNCTION     1.77     1.94     8.37     0  01:50        1.93
  YS02001644           JUNCTION     1.78     1.92     8.35     0  01:50        1.92
  YS02001652           JUNCTION     1.63     2.16     8.76     0  01:54        2.01
  YS02001655           JUNCTION     1.39     2.20     9.05     0  02:13        1.86
  YS02001920           JUNCTION     0.53     1.71     8.72     0  01:57        1.43
  YS02001923           JUNCTION     0.35     1.52     8.78     0  01:57        1.21
  YS02001926           JUNCTION     0.37     1.90     9.35     0  01:57        1.08
  YS02001929           JUNCTION     0.23     0.93     8.62     0  01:57        0.92
  YS02001658           JUNCTION     1.12     2.30     9.44     0  02:13        1.67
  YS02001661           JUNCTION     0.88     2.46     9.86     0  01:54        1.45
  YS02001664           JUNCTION     0.39     0.57     8.49     0  04:10        0.56
  YS02001622           JUNCTION     1.34     1.62     8.52     0  01:48        1.50
  YS02001633           JUNCTION     1.77     1.96     8.41     0  01:50        1.94
  YS02001649           JUNCTION     1.82     2.05     8.44     0  01:54        2.05
  YS02001757           JUNCTION     1.94     2.18     8.44     0  03:05        2.18
  YS02001895           JUNCTION     0.67     1.75     8.50     0  01:55        1.56
  YS02001625           JUNCTION     1.63     1.78     8.38     0  01:46        1.78
  YS02163301           JUNCTION     1.71     1.89     8.41     0  01:50        1.88
  YS02163601           JUNCTION     1.82     2.00     8.40     0  01:50        1.98
  YS02164001           JUNCTION     1.76     1.93     8.39     0  01:50        1.91
  YS02001647           JUNCTION     1.61     1.80     8.41     0  03:56        1.79
  YSB1154              JUNCTION     0.28     0.56     9.62     0  01:53        0.56
  YSB6556              JUNCTION     0.17     0.44     9.61     0  01:53        0.44
  YSB1174              JUNCTION     0.23     0.50     9.61     0  01:53        0.50
  YSB1171              JUNCTION     0.43     0.71     9.61     0  01:53        0.71
  YS02006553           JUNCTION     1.09     2.05     8.33     0  01:55        1.97
  YS02006561           JUNCTION     0.43     1.95     8.61     0  01:55        1.09
  YS02006556           JUNCTION     1.06     2.18     8.49     0  01:55        1.93
  YS02006558           JUNCTION     1.10     2.28     8.55     0  01:55        1.97
  YS02001783           JUNCTION     0.69     2.19     8.33     0  01:55        1.48
  YS02001784           JUNCTION     0.70     2.13     8.20     0  01:55        1.42
  YS02001786           JUNCTION     0.63     2.23     8.26     0  01:54        1.26
  YS02001788           JUNCTION     0.57     2.28     8.26     0  01:54        1.13
  YS02001790           JUNCTION     0.70     1.96     7.60     0  01:54        1.29
  YS02001791           JUNCTION     0.69     2.72     8.19     0  01:54        1.28
  YS02001793           JUNCTION     0.96     3.19     8.02     0  01:53        1.80
  WS02004139           JUNCTION     0.58     0.76     5.67     0  02:10        0.75
  WSC                  OUTFALL      0.31     0.44     1.11     0  02:13        0.44
  3                    OUTFALL      0.10     0.21     6.21     0  02:40        0.21
  4                    OUTFALL      0.04     0.19     7.19     0  01:51        0.19
  5                    OUTFALL      0.00     0.00     5.00     0  00:00        0.00
  JK-storage           STORAGE      3.32     5.80     6.60     0  01:54        5.80
  CC-storage           STORAGE      1.16     1.40     8.40     0  02:54        1.40
  XR-storage           STORAGE      7.51     7.72     5.72     0  01:55        7.72
  
  
  *******************
  Node Inflow Summary
  *******************
  
  -------------------------------------------------------------------------------------------------
                                  Maximum  Maximum                  Lateral       Total        Flow
                                  Lateral    Total  Time of Max      Inflow      Inflow     Balance
                                   Inflow   Inflow   Occurrence      Volume      Volume       Error
  Node                 Type           LPS      LPS  days hr:min    10^6 ltr    10^6 ltr     Percent
  -------------------------------------------------------------------------------------------------
  WS02001211           JUNCTION      7.35   382.32     0  00:50       0.207        6.14       0.524
  WS02001212           JUNCTION      0.00   378.94     0  00:51           0        6.11       0.271
  WS02001213           JUNCTION      0.00   378.37     0  00:51           0        6.09       0.334
  WS02003069           JUNCTION      0.32  1145.68     0  02:12     0.00902        15.9       0.169
  WS02003072           JUNCTION      0.00  1145.20     0  02:12           0        15.9       0.209
  WS02003073           JUNCTION      1.82  1146.78     0  02:13      0.0514        15.9       0.232
  WS02003060           JUNCTION     16.53  1145.73     0  02:11       0.466        15.9       0.161
  WS02003066           JUNCTION      0.00   812.51     0  01:57           0        9.45       0.047
  WS02003059           JUNCTION      0.00   377.74     0  02:11           0        6.07       0.613
  WS02003067           JUNCTION      0.00   812.47     0  01:57           0        9.46       0.099
  WS02004401           JUNCTION      0.00   813.48     0  01:55           0         9.7       0.225
  WS02004402           JUNCTION      0.00   813.49     0  01:55           0        9.67       0.211
  WS02004403           JUNCTION      0.00   813.49     0  01:55           0        9.65       0.192
  WS02004404           JUNCTION      0.16   813.66     0  01:55     0.00457        9.64       0.145
  WS02004406           JUNCTION      0.00   813.70     0  01:55           0        9.61       0.351
  WS02004409           JUNCTION      0.00   813.65     0  01:55           0        9.57       0.174
  WS02004410           JUNCTION      0.00   812.87     0  01:56           0        9.55       0.195
  WS02004411           JUNCTION      0.00   812.53     0  01:56           0        9.53       0.200
  WS02004412           JUNCTION      0.00   812.44     0  01:56           0        9.51       0.215
  WS02004413           JUNCTION      0.00   812.45     0  01:57           0        9.49       0.318
  WS02004405           JUNCTION      0.04   813.70     0  01:55     0.00107        9.63       0.216
  WS02006109           JUNCTION      1.23   788.34     0  01:54      0.0347        9.73       0.226
  WS02006110           JUNCTION      0.00   788.28     0  01:53           0        9.71       0.208
  WS02006111           JUNCTION      0.00   787.63     0  01:54           0        9.68       0.048
  WS02006112           JUNCTION     26.81   813.48     0  01:55      0.0948        9.77       0.299
  WS02006113           JUNCTION      0.00   788.26     0  01:54           0        9.69       0.102
  WS02006115           JUNCTION      0.00   813.48     0  01:55           0        9.74       0.211
  WS02006116           JUNCTION      0.00   813.45     0  01:55           0        9.72       0.200
  WS02006230           JUNCTION     10.28   403.00     0  05:40        0.29        7.04       0.194
  WS02006231           JUNCTION      0.00   392.92     0  05:40           0        6.76       0.168
  WS02006232           JUNCTION      0.00   392.92     0  05:40           0        6.77       0.242
  WS02006234           JUNCTION      0.00   393.25     0  05:34           0        6.78       0.119
  WS02006235           JUNCTION      0.00   395.31     0  05:33           0        6.92       0.160
  WS02006238           JUNCTION      0.00   308.12     0  06:22           0        4.99       0.157
  WS02006240           JUNCTION      0.00   313.60     0  03:41           0        4.98       0.242
  WS02006242           JUNCTION      0.00   324.01     0  03:41           0        4.98       0.294
  WS02006243           JUNCTION      0.00   334.36     0  03:41           0        4.97      -0.045
  WS02006245           JUNCTION      0.00   342.17     0  03:41           0        4.98       0.214
  WS02006247           JUNCTION      0.00   348.80     0  03:40           0        4.99       0.140
  WS02006248           JUNCTION      0.00   354.40     0  03:40           0        4.99       0.072
  WS02006249           JUNCTION      0.00   526.50     0  01:50           0        5.94       0.181
  WS02006239           JUNCTION      0.00   309.38     0  06:22           0        4.98       0.235
  WS02006251           JUNCTION      0.08   528.98     0  01:50     0.00217        5.97       0.149
  WS02006252           JUNCTION      0.00   400.00     0  05:30           0        5.41       0.008
  WS02006253           JUNCTION      3.66   142.87     0  01:54      0.0117       0.565       0.639
  WS02006256           JUNCTION      0.00   599.90     0  05:10           0         5.9       0.055
  WS02004138           JUNCTION      0.00   379.98     0  02:10           0        5.96       0.052
  WS02004407           JUNCTION      0.00   813.70     0  01:55           0        9.57       0.079
  WS02006228           JUNCTION      0.00   787.11     0  01:54           0        9.71       0.154
  WS02006229           JUNCTION      0.00   787.30     0  01:53           0        9.72       0.139
  WS02006280           JUNCTION      0.00   656.05     0  01:55           0         2.7       0.002
  WS02006284           JUNCTION      0.10   655.96     0  01:55      0.0027         2.7       0.040
  WS02006287           JUNCTION      0.00   655.81     0  01:54           0         2.7       0.027
  WSF200               JUNCTION      0.00   812.47     0  01:57           0        9.45       0.046
  HS02004901           JUNCTION     32.57    32.57     0  01:50       0.114       0.115       1.559
  HS02004881           JUNCTION     13.82   139.59     0  01:54      0.0479       0.529       0.078
  HS02004876           JUNCTION     24.51   126.37     0  01:54      0.0923       0.482       0.114
  HS02004870           JUNCTION     25.44   102.13     0  01:54      0.0907        0.39       0.028
  HS02004862           JUNCTION     23.11    77.53     0  01:55       0.099       0.299       0.058
  HS02004856           JUNCTION     19.02    54.51     0  01:55      0.0682       0.202       0.719
  HS02004852           JUNCTION      0.00    36.10     0  01:55           0       0.134       0.042
  HS02004848           JUNCTION     50.49    50.49     0  01:57       0.223       0.223       0.020
  HS02004842           JUNCTION      0.00    15.55     0  02:06           0       0.102      14.562
  HS02004837           JUNCTION     49.08    62.50     0  01:55       0.337       0.426       0.190
  HS02004830           JUNCTION      0.15    62.61     0  01:55     0.00423       0.416       0.298
  HS02004824           JUNCTION     60.06   122.20     0  01:58       0.286       0.702       0.077
  HS02004817           JUNCTION      0.60   124.03     0  01:59      0.0169       0.718       2.378
  HS02004807           JUNCTION     47.25   168.28     0  01:57       0.166       0.868       0.499
  HS02004802           JUNCTION      0.00   169.24     0  01:58           0       0.865       0.462
  HS02004799           JUNCTION     37.43   414.54     0  01:52       0.135        1.57       0.167
  HS02004792           JUNCTION    160.44   377.31     0  01:52       0.598        1.44       0.028
  HS02004788           JUNCTION     53.14   218.54     0  01:53        0.24       0.839       0.047
  HS02004785           JUNCTION      0.15   165.60     0  01:52     0.00423       0.601       0.082
  HS02004777           JUNCTION      0.03   165.80     0  01:51    0.000846       0.601       0.872
  HS02004770           JUNCTION    134.74   166.65     0  01:51        0.49       0.602       0.515
  HS02004480           JUNCTION      0.00   492.23     0  01:53           0        1.85       0.065
  HS02004479           JUNCTION      0.00    78.01     0  01:53           0       0.292       0.252
  HS02004478           JUNCTION      0.00   655.77     0  01:54           0         2.7       0.013
  YS02001745           JUNCTION    386.89   386.89     0  02:16        3.55        3.55       0.323
  YS02001748           JUNCTION      0.04   398.52     0  02:16     0.00127        3.54       0.655
  YS02001751           JUNCTION      0.01   398.07     0  02:16     0.00031        3.52       0.679
  YS02001754           JUNCTION      0.26   398.42     0  02:16     0.00733         3.5       0.704
  YS02001762           JUNCTION      0.00   439.41     0  02:04           0        2.22       0.957
  YS02001765           JUNCTION      0.00   439.51     0  02:04           0        2.22       1.099
  YS02001767           JUNCTION      0.54   439.51     0  02:04      0.0151        2.24       1.610
  YS02001770           JUNCTION    491.42   579.66     0  02:58        3.94         4.4       0.719
  YS02001774           JUNCTION      0.00   580.38     0  02:58           0        2.61       0.963
  YS02001779           JUNCTION      0.01   580.42     0  02:58    0.000141        2.58       0.597
  YS02001882           JUNCTION      0.00    29.43     0  01:55           0      0.0173      14.870
  YS02001884           JUNCTION      0.00    46.35     0  01:55           0      0.0523      13.897
  YS02001759           JUNCTION    476.91   877.48     0  02:06        3.62        5.34       0.427
  YS02001887           JUNCTION    605.93   606.01     0  02:15        4.13        4.16       0.210
  YS02001890           JUNCTION      0.00   606.14     0  02:15           0        4.11       0.227
  YS02001898           JUNCTION      0.00   517.26     0  02:18           0           4       0.082
  YS02001901           JUNCTION      0.00   517.34     0  02:18           0           4       0.177
  YS02001904           JUNCTION      0.00   517.29     0  02:18           0        3.99       0.159
  YS02001907           JUNCTION      0.00  1142.65     0  01:58           0        9.13       0.266
  YS02001910           JUNCTION      0.00   630.19     0  01:58           0        5.16       0.237
  YS02001915           JUNCTION    345.21   629.98     0  01:58        2.96        5.21       0.117
  YS02001918           JUNCTION      0.00   358.37     0  01:58           0        2.28       0.094
  YS02001619           JUNCTION    336.52   336.52     0  02:16        2.95        2.95       0.416
  YS02001629           JUNCTION      0.00   217.59     0  01:47           0        1.44       2.015
  YS02001641           JUNCTION      0.00   412.63     0  01:50           0        4.85       0.430
  YS02001644           JUNCTION    367.62  1374.79     0  02:58        3.42        11.9       0.217
  YS02001652           JUNCTION      0.00   482.13     0  02:13           0        3.05       0.752
  YS02001655           JUNCTION      0.15   482.00     0  02:13     0.00434        3.08       0.834
  YS02001920           JUNCTION      2.87   358.13     0  01:58      0.0809        2.26       0.141
  YS02001923           JUNCTION      0.04   303.34     0  01:56     0.00106        2.16       0.042
  YS02001926           JUNCTION      0.05   374.22     0  01:56     0.00147        2.14       0.147
  YS02001929           JUNCTION    185.81   218.66     0  01:57        2.12        2.13       0.031
  YS02001658           JUNCTION      0.00   513.89     0  02:14           0        3.09       0.756
  YS02001661           JUNCTION      0.00   779.55     0  02:08           0        3.79      -0.114
  YS02001664           JUNCTION    437.54   437.54     0  02:16         3.1        3.79       0.193
  YS02001622           JUNCTION      0.00   336.73     0  02:16           0        2.94       1.090
  YS02001633           JUNCTION    373.18   412.45     0  01:51        3.53        4.92       0.650
  YS02001649           JUNCTION      0.00   960.21     0  02:02           0        6.52       0.568
  YS02001757           JUNCTION      0.00  2144.07     0  02:05           0        11.1       0.834
  YS02001895           JUNCTION      0.00   517.38     0  02:18           0           4       0.132
  YS02001625           JUNCTION      0.00   336.61     0  02:16           0        2.91       1.368
  YS02163301           JUNCTION      0.00   225.67     0  01:48           0        1.44       1.685
  YS02163601           JUNCTION      0.11   412.30     0  01:51      0.0031        4.86       0.617
  YS02164001           JUNCTION      0.00   411.98     0  01:51           0        4.85       0.409
  YS02001647           JUNCTION      0.00   648.88     0  02:56           0        5.43       0.521
  YSB1154              JUNCTION     43.61    43.61     0  01:53       0.163       0.164       0.888
  YSB6556              JUNCTION      0.00    43.64     0  01:53           0       0.165       0.764
  YSB1174              JUNCTION     35.87    35.87     0  01:50        0.12        0.12       1.078
  YSB1171              JUNCTION      0.00    78.03     0  01:52           0       0.291       2.227
  YS02006553           JUNCTION      0.00   683.20     0  03:22           0        7.12       0.216
  YS02006561           JUNCTION      0.00  1004.77     0  01:54           0        10.9       0.007
  YS02006556           JUNCTION      0.00   683.36     0  03:21           0        7.13       0.160
  YS02006558           JUNCTION    522.52  1004.48     0  01:54        3.81        10.9       0.049
  YS02001783           JUNCTION      0.00   988.18     0  01:54           0        10.9       0.024
  YS02001784           JUNCTION      1.06   987.41     0  01:54      0.0299        10.9       0.036
  YS02001786           JUNCTION      0.06   987.62     0  01:54     0.00159        10.9       0.032
  YS02001788           JUNCTION      0.07   969.45     0  02:15       0.002        10.9       0.018
  YS02001790           JUNCTION      0.15   969.61     0  02:15     0.00437        10.9       0.024
  YS02001791           JUNCTION      0.00   969.60     0  02:15           0        10.9       0.008
  YS02001793           JUNCTION      0.00   969.68     0  02:15           0        10.9       0.006
  WS02004139           JUNCTION      0.32   379.84     0  00:50     0.00905        5.96       0.515
  WSC                  OUTFALL       0.00  1146.28     0  02:13           0        15.9       0.000
  3                    OUTFALL       0.00   528.29     0  02:40           0        3.93       0.000
  4                    OUTFALL       0.00   303.24     0  01:51           0       0.939       0.000
  5                    OUTFALL       0.00     0.00     0  00:00           0           0       0.000 ltr
  JK-storage           STORAGE       0.00  1015.98     0  01:53           0          11      -6.113
  CC-storage           STORAGE       0.00  2143.69     0  02:05           0        9.19       0.678
  XR-storage           STORAGE     844.69   844.69     0  03:01        12.1        12.7       0.000
  
  
  **********************
  Node Surcharge Summary
  **********************
  
  Surcharging occurs when water rises above the top of the highest conduit.
  ---------------------------------------------------------------------
                                               Max. Height   Min. Depth
                                   Hours       Above Crown    Below Rim
  Node                 Type      Surcharged         Meters       Meters
  ---------------------------------------------------------------------
  WS02004401           JUNCTION        0.58          0.114        1.546
  WS02004402           JUNCTION        0.63          0.116        1.624
  WS02004403           JUNCTION        0.63          0.105        1.925
  WS02004404           JUNCTION        0.97          0.157        2.623
  WS02004406           JUNCTION        0.72          0.106        2.344
  WS02004405           JUNCTION        0.75          0.138        2.662
  WS02006109           JUNCTION        3.01          0.448        1.372
  WS02006110           JUNCTION        1.46          0.204        1.646
  WS02006112           JUNCTION        1.55          0.395        1.285
  WS02006115           JUNCTION        0.28          0.058        2.192
  WS02006116           JUNCTION        0.33          0.065        2.225
  WS02006230           JUNCTION        0.82          0.596        0.974
  WS02006231           JUNCTION        1.21          0.406        1.124
  WS02006232           JUNCTION        3.13          0.524        0.956
  WS02006234           JUNCTION        1.41          0.459        0.781
  WS02006235           JUNCTION        2.27          0.452        0.838
  WS02006238           JUNCTION        2.66          0.457        0.973
  WS02006240           JUNCTION        1.29          0.538        0.852
  WS02006242           JUNCTION        2.11          0.820        0.000
  WS02006243           JUNCTION        0.85          0.770        0.000
  WS02006245           JUNCTION        0.34          0.376        0.474
  WS02006247           JUNCTION        0.34          0.760        0.000
  WS02006239           JUNCTION        1.51          0.774        0.516
  WS02006252           JUNCTION        2.69          0.192        0.908
  WS02006228           JUNCTION        2.88          0.558        1.642
  YS02001748           JUNCTION        5.99          0.300        0.890
  YS02001751           JUNCTION        6.02          0.636        0.564
  YS02001754           JUNCTION        6.04          0.781        0.369
  YS02001762           JUNCTION        6.08          1.043        0.107
  YS02001765           JUNCTION        6.08          0.991        0.109
  YS02001767           JUNCTION        6.07          0.948        0.082
  YS02001770           JUNCTION        6.07          0.896        0.024
  YS02001774           JUNCTION        6.08          0.985        0.065
  YS02001779           JUNCTION        6.04          0.680        0.000
  YS02001882           JUNCTION        1.76          0.830        0.000
  YS02001884           JUNCTION        1.79          0.870        0.000
  YS02001759           JUNCTION        6.09          1.082        0.128
  YS02001887           JUNCTION        1.87          0.860        0.090
  YS02001890           JUNCTION        1.90          0.760        0.000
  YS02001898           JUNCTION        1.72          0.650        0.090
  YS02001901           JUNCTION        1.83          0.731        0.139
  YS02001904           JUNCTION        1.82          0.642        0.208
  YS02001907           JUNCTION        2.26          0.950        0.000
  YS02001910           JUNCTION        1.94          0.870        0.230
  YS02001915           JUNCTION        1.75          0.756        0.244
  YS02001918           JUNCTION        1.53          0.589        0.221
  YS02001619           JUNCTION        6.02          0.610        0.000
  YS02001629           JUNCTION        6.02          0.470        0.000
  YS02001641           JUNCTION        6.08          0.938        0.162
  YS02001644           JUNCTION        6.08          0.920        0.000
  YS02001652           JUNCTION        6.05          1.130        0.000
  YS02001655           JUNCTION        6.02          1.200        0.000
  YS02001920           JUNCTION        1.56          0.712        0.428
  YS02001923           JUNCTION        0.01          0.306        0.514
  YS02001926           JUNCTION        0.01          0.900        0.000
  YS02001658           JUNCTION        6.00          1.300        0.000
  YS02001661           JUNCTION        0.33          1.390        0.000
  YS02001622           JUNCTION        6.02          0.620        0.000
  YS02001633           JUNCTION        6.08          0.938        0.122
  YS02001649           JUNCTION        6.08          1.050        0.000
  YS02001757           JUNCTION        6.12          1.180        0.030
  YS02001895           JUNCTION        1.73          0.750        0.000
  YS02001625           JUNCTION        6.05          0.780        0.000
  YS02163301           JUNCTION        6.07          0.893        0.137
  YS02163601           JUNCTION        6.09          0.999        0.081
  YS02164001           JUNCTION        6.08          0.933        0.167
  YS02001647           JUNCTION        6.05          0.800        0.100
  YS02006553           JUNCTION        2.30          1.047        0.143
  YS02006561           JUNCTION        1.64          1.150        0.000
  YS02006556           JUNCTION        2.11          1.135        0.215
  YS02006558           JUNCTION        2.09          1.183        0.217
  YS02001783           JUNCTION        2.13          1.393        0.207
  YS02001784           JUNCTION        2.19          1.333        0.157
  YS02001786           JUNCTION        2.10          1.430        0.000
  YS02001788           JUNCTION        2.08          1.480        0.000
  YS02001790           JUNCTION        3.24          1.157        0.000
  YS02001791           JUNCTION        3.26          1.920        0.000
  YS02001793           JUNCTION        3.32          2.191        0.409
  
  
  *********************
  Node Flooding Summary
  *********************
  
  Flooding refers to all water that overflows a node, whether it ponds or not.
  --------------------------------------------------------------------------
                                                             Total   Maximum
                                 Maximum   Time of Max       Flood    Ponded
                        Hours       Rate    Occurrence      Volume     Depth
  Node                 Flooded       LPS   days hr:min    10^6 ltr    Meters
  --------------------------------------------------------------------------
  WS02006242              0.01    109.31      0  01:44       0.000     0.000
  WS02006243              0.01     53.92      0  01:44       0.000     0.000
  WS02006247              0.01     46.36      0  01:45       0.000     0.000
  YS02001779              3.35    580.25      0  02:58       2.561     0.000
  YS02001882              0.01     28.31      0  01:55       0.000     0.000
  YS02001884              0.01     11.11      0  01:55       0.000     0.000
  YS02001890              0.57     89.68      0  02:16       0.101     0.000
  YS02001907              1.40    615.17      0  01:58       1.999     0.000
  YS02001619              0.01     45.71      0  01:48       0.000     0.000
  YS02001629              0.01    159.42      0  01:47       0.001     0.000
  YS02001644              4.78   1374.69      0  02:58      10.169     0.000
  YS02001652              0.01     18.51      0  02:15       0.000     0.000
  YS02001655              0.01     23.09      0  02:15       0.000     0.000
  YS02001926              0.01    267.33      0  01:57       0.000     0.000
  YS02001658              0.01     11.91      0  02:13       0.000     0.000
  YS02001661              0.01    166.10      0  02:15       0.001     0.000
  YS02001622              0.01     52.01      0  01:49       0.000     0.000
  YS02001649              0.11     48.26      0  02:15       0.005     0.000
  YS02001895              0.01     37.78      0  01:55       0.000     0.000
  YS02001625              2.05    326.24      0  02:16       1.449     0.000
  YS02006561              0.01     68.92      0  01:55       0.000     0.000
  YS02001786              0.01    218.58      0  01:54       0.000     0.000
  YS02001788              0.01    224.43      0  01:54       0.000     0.000
  YS02001790              0.01    270.40      0  01:54       0.000     0.000
  YS02001791              0.01    242.61      0  01:54       0.000     0.000
  JK-storage              3.17    969.21      0  02:07       5.954     0.000
  XR-storage              5.79    732.23      0  02:20       5.825     0.000
  
  
  **********************
  Storage Volume Summary
  **********************
  
  --------------------------------------------------------------------------------------------------
                         Average     Avg  Evap Exfil       Maximum     Max    Time of Max    Maximum
                          Volume    Pcnt  Pcnt  Pcnt        Volume    Pcnt     Occurrence    Outflow
  Storage Unit           1000 m3    Full  Loss  Loss       1000 m3    Full    days hr:min        LPS
  --------------------------------------------------------------------------------------------------
  JK-storage               0.167      57     0     0         0.291     100       0  01:54     599.90
  CC-storage               3.231      21     0     0         3.891      25       0  02:54     400.00
  XR-storage               0.901      97     0     0         0.926     100       0  01:55     379.98
  
  
  ***********************
  Outfall Loading Summary
  ***********************
  
  -----------------------------------------------------------
                         Flow       Avg       Max       Total
                         Freq      Flow      Flow      Volume
  Outfall Node           Pcnt       LPS       LPS    10^6 ltr
  -----------------------------------------------------------
  WSC                   99.99    630.81   1146.28      15.880
  3                     94.44    182.21    528.29       3.933
  4                     49.45     84.47    303.24       0.939
  5                      0.00      0.00      0.00       0.000
  -----------------------------------------------------------
  System                60.97    897.49   1662.11      20.752
  
  
  ********************
  Link Flow Summary
  ********************
  
  -----------------------------------------------------------------------------
                                 Maximum  Time of Max   Maximum    Max/    Max/
                                  |Flow|   Occurrence   |Veloc|    Full    Full
  Link                 Type          LPS  days hr:min     m/sec    Flow   Depth
  -----------------------------------------------------------------------------
  WS02003066WSF200     CONDUIT    812.47     0  01:57      2.95    0.14    0.29
  WS02006287WS02006284 CONDUIT    655.87     0  01:55      2.36    0.30    0.38
  WS02006284WS02006280 CONDUIT    656.05     0  01:55      2.59    0.27    0.36
  WS02006280WS02006229 CONDUIT    656.06     0  01:55      4.21    0.14    0.25
  WS02006229WS02006228 CONDUIT    787.11     0  01:54      1.57    2.61    1.00
  WS02006256WS02006235 CONDUIT    166.25     0  00:01      2.58    1.76    1.00
  WS02006253WS02006251 CONDUIT    147.98     0  01:55      0.59    0.44    1.00
  WS02006252WS02006251 CONDUIT    400.35     0  06:22      3.19    1.47    1.00
  WS02006251WS02006249 CONDUIT    526.50     0  01:50      1.37    1.52    0.99
  WS02006249WS02006248 CONDUIT    354.40     0  03:40      1.16    1.94    0.97
  WS02006248WS02006247 CONDUIT    348.80     0  03:40      1.12    0.76    0.99
  WS02006247WS02006245 CONDUIT    342.17     0  03:41      1.08    2.71    1.00
  WS02006245WS02006243 CONDUIT    334.36     0  03:41      1.09    0.99    1.00
  WS02006243WS02006242 CONDUIT    324.01     0  03:41      0.94    0.69    1.00
  WS02006242WS02006240 CONDUIT    313.60     0  03:41      0.86    1.25    1.00
  WS02006240WS02006239 CONDUIT    309.38     0  06:22      0.84    0.97    1.00
  WS02006239WS02006238 CONDUIT    308.12     0  06:22      0.80    0.99    1.00
  WS02006238WS02006235 CONDUIT    307.93     0  06:22      1.25    0.69    1.00
  WS02006235WS02006234 CONDUIT    393.25     0  05:34      1.04    4.15    1.00
  WS02006234WS02006232 CONDUIT    392.92     0  05:40      1.13    0.79    1.00
  WS02006232WS02006231 CONDUIT    392.92     0  05:40      1.06    0.82    1.00
  WS02006231WS02006230 CONDUIT    392.72     0  05:40      1.35    5.96    1.00
  WS02006230WS02006229 CONDUIT    402.94     0  05:41      1.05    8.97    1.00
  WS02006228WS02006109 CONDUIT    787.11     0  01:54      1.57    3.44    1.00
  WS02006116WS02004401 CONDUIT    813.48     0  01:55      1.04    1.12    1.00
  WS02006115WS02006116 CONDUIT    813.45     0  01:55      1.04    1.04    1.00
  WS02006113WS02006111 CONDUIT    787.63     0  01:54      2.67    0.94    0.77
  WS02006112WS02006115 CONDUIT    813.48     0  01:55      1.04    0.48    1.00
  WS02006111WS02006112 CONDUIT    788.37     0  01:55      1.81    0.37    0.88
  WS02006110WS02006113 CONDUIT    788.26     0  01:54      1.68    0.72    0.89
  WS02006109WS02006110 CONDUIT    788.28     0  01:53      1.57    1.52    1.00
  WS02004411WS02004412 CONDUIT    812.44     0  01:56      1.15    1.15    0.84
  WS02004401WS02004402 CONDUIT    813.49     0  01:55      1.04    0.98    1.00
  WS02004413WS02003067 CONDUIT    812.47     0  01:57      1.40    0.35    0.69
  WS02004412WS02004413 CONDUIT    812.45     0  01:57      1.09    0.54    0.91
  WS02004410WS02004411 CONDUIT    812.53     0  01:56      1.14    1.11    0.85
  WS02004409WS02004410 CONDUIT    812.87     0  01:56      1.13    1.05    0.86
  WS02004407WS02004409 CONDUIT    813.65     0  01:55      1.67    0.29    0.61
  WS02004406WS02004407 CONDUIT    813.70     0  01:55      1.42    0.36    0.68
  WS02004405WS02004406 CONDUIT    813.70     0  01:55      1.04    1.61    1.00
  WS02004404WS02004405 CONDUIT    813.66     0  01:55      1.04    7.97    1.00
  WS02004403WS02004404 CONDUIT    813.49     0  01:55      1.04    0.59    1.00
  WS02004402WS02004403 CONDUIT    813.49     0  01:55      1.04    1.17    1.00
  WS02004139WS02001211 CONDUIT    374.97     0  00:50      0.57    0.47    0.61
  WS02004138WS02004139 CONDUIT    379.52     0  00:50      2.39    0.08    0.45
  WS02003067WS02003066 CONDUIT    812.51     0  01:57      1.52    0.26    0.48
  WS02001213WS02003059 CONDUIT    377.74     0  02:11      0.68    0.62    0.82
  WS02001212WS02001213 CONDUIT    378.37     0  00:51      1.31    0.58    0.51
  WS02001211WS02001212 CONDUIT    378.94     0  00:51      0.77    0.29    0.68
  WS02003072WS02003073 CONDUIT   1144.96     0  02:13      1.85    2.47    0.54
  WS02003069WS02003072 CONDUIT   1145.20     0  02:12      1.73    0.55    0.57
  WS02003060WS02003069 CONDUIT   1145.36     0  02:12      1.96    0.45    0.51
  WS02003059WS02003060 CONDUIT    378.31     0  02:11      0.93    0.25    0.72
  HS02004901HS02004770 CONDUIT     31.96     0  01:52      0.09    0.12    0.51
  HS02004876HS02004881 CONDUIT    126.38     0  01:55      1.20    1.34    0.15
  HS02004870HS02004876 CONDUIT    102.10     0  01:55      0.82    0.07    0.18
  HS02004842HS02004848 CONDUIT     15.55     0  02:06      0.07    0.01    0.33
  HS02004837HS02004842 CONDUIT     15.96     0  02:07      0.41    0.01    0.35
  HS02004830HS02004837 CONDUIT     62.46     0  01:55      0.66    0.06    0.14
  HS02004824HS02004830 CONDUIT     62.57     0  01:56      0.62    0.08    0.16
  HS02004817HS02004824 CONDUIT    123.43     0  01:59      0.31    0.06    0.58
  HS02004770HS02004777 CONDUIT    165.77     0  01:51      0.46    0.30    0.52
  HS02004799HS02004480 CONDUIT    414.30     0  01:53      1.02    0.52    0.58
  HS02004792HS02004799 CONDUIT    377.22     0  01:52      1.15    0.23    0.47
  HS02004788HS02004792 CONDUIT    218.45     0  01:53      1.24    0.14    0.25
  HS02004785HS02004788 CONDUIT    165.54     0  01:53      0.86    1.25    0.27
  HS02004777HS02004785 CONDUIT    165.45     0  01:52      0.54    0.20    0.44
  HS02004480HS02004478 CONDUIT    492.14     0  01:53      1.52    2.07    0.46
  HS02004479HS02004480 CONDUIT     78.31     0  01:54      0.27    0.08    0.55
  HS02004862HS02004870 CONDUIT     77.52     0  01:55      0.79    0.08    0.14
  HS02004848HS02004852 CONDUIT     36.10     0  01:55      0.52    0.04    0.10
  HS02004856HS02004862 CONDUIT     54.46     0  01:55      0.59    0.05    0.13
  HS02004852HS02004856 CONDUIT     36.15     0  01:56      0.33    0.04    0.16
  HS02004802HS02004478 CONDUIT    170.22     0  01:58      0.53    0.15    0.47
  HS02004478WS02006287 CONDUIT    655.81     0  01:54      2.08    0.18    0.35
  HS02004817HS02004807 CONDUIT    125.36     0  01:59      0.24    0.07    0.75
  HS02004807HS02004802 CONDUIT    169.24     0  01:58      0.47    0.32    0.53
  YS02001759YS02001757 CONDUIT    877.39     0  02:06      1.12    0.62    1.00
  YS02001762YS02001759 CONDUIT    439.23     0  02:04      0.56    0.51    1.00
  YS02001765YS02001762 CONDUIT    439.41     0  02:04      0.56    0.41    1.00
  YS02001770YS02001767 CONDUIT    438.98     0  02:04      0.56    1.74    1.00
  YS02001774YS02001770 CONDUIT    580.38     0  02:58      0.74    0.37    1.00
  YS02001779YS02001774 CONDUIT    580.41     0  02:58      0.74    0.29    1.00
  YS02001649YS02001757 CONDUIT    959.71     0  02:02      1.22    0.58    1.00
  YS02001767YS02001765 CONDUIT    439.51     0  02:04      0.56    0.55    1.00
  YS02006561YS02001783 CONDUIT    988.18     0  01:54      2.22    0.51    1.00
  YS02001783YS02001784 CONDUIT    986.35     0  01:54      1.96    1.36    1.00
  YS02001784YS02001785 CONDUIT    987.56     0  01:54      1.99    2.30    1.00
  YS02001788YS02001790 CONDUIT    969.45     0  02:15      2.43    0.71    1.00
  YS02001790YS02001791 CONDUIT    969.60     0  02:15      3.02    1.05    1.00
  YS02001791YS02001793 CONDUIT    969.68     0  02:15      5.91    0.42    1.00
  YS02001910YS02001907 CONDUIT    630.04     0  01:58      0.80    0.36    1.00
  YS02001786YS02001788 CONDUIT    969.37     0  02:15      2.32    1.87    1.00
  YS02001915YS02001910 CONDUIT    630.19     0  01:58      0.80    0.31    1.00
  YS02001918YS02001915 CONDUIT    358.77     0  01:58      0.46    0.20    1.00
  YS02001923YS02001920 CONDUIT    355.26     0  01:58      0.78    0.16    1.00
  YS02001926YS02001923 CONDUIT    300.50     0  01:57      0.87    0.43    1.00
  YS02001929YS02001926 CONDUIT    219.94     0  01:58      0.93    0.10    0.96
  YS02001920YS02001918 CONDUIT    358.37     0  01:58      0.76    0.35    1.00
  YS02001629YS02163301 CONDUIT    225.67     0  01:48      0.29    0.28    1.00
  YS02001619YS02001622 CONDUIT    336.73     0  02:16      0.76    0.50    1.00
  YS02001622YS02001625 CONDUIT    336.61     0  02:16      0.43    0.18    1.00
  YS02001625YS02001629 CONDUIT    202.96     0  01:47      0.31    0.10    1.00
  YS02163301YS02001633 CONDUIT    225.22     0  01:48      0.29    0.21    1.00
  YS02163601YS02164001 CONDUIT    411.98     0  01:51      0.52    0.37    1.00
  YS02164001YS02001641 CONDUIT    412.63     0  01:50      0.53    0.56    1.00
  YS02001641YS02001644 CONDUIT    413.33     0  01:50      0.53    1.34    1.00
  YS02001647YS02001649 CONDUIT    648.88     0  02:56      0.83    0.34    1.00
  YS02006553YS02006556 CONDUIT    683.36     0  03:21      0.87    0.58    1.00
  YS02006556YS02006558 CONDUIT    683.38     0  03:22      0.87    0.54    1.00
  YSB6556YSB1171       CONDUIT     43.98     0  01:54      0.13    0.05    0.82
  YS02001907YS02006553 CONDUIT    683.20     0  03:22      0.76    0.80    1.00
  YS02006558YS02006561 CONDUIT   1004.77     0  01:54      3.68    2.22    1.00
  YS02001633YS02163601 CONDUIT    412.19     0  01:51      0.52    0.43    1.00
  YS02001644YS02001647 CONDUIT    649.07     0  02:56      0.83    0.38    1.00
  YS02001745YS02001748 CONDUIT    398.48     0  02:16      1.73    0.15    0.96
  YS02001748YS02001751 CONDUIT    398.06     0  02:16      1.26    0.20    1.00
  YS02001751YS02001754 CONDUIT    398.16     0  02:16      1.03    0.19    1.00
  YS02001754YS02001757 CONDUIT    398.06     0  02:16      0.51    0.16    1.00
  YS02001882YS02001884 CONDUIT     29.43     0  01:55      0.12    0.03    1.00
  YS02001884YS02001887 CONDUIT     46.35     0  01:55      0.09    0.06    1.00
  YS02001890YS02001895 CONDUIT    517.38     0  02:18      0.66    0.24    1.00
  YS02001895YS02001898 CONDUIT    517.26     0  02:18      0.66    0.90    1.00
  YS02001898YS02001901 CONDUIT    517.34     0  02:18      0.66    0.33    1.00
  YS02001901YS02001904 CONDUIT    517.29     0  02:18      0.66    0.80    1.00
  YS02001904YS02001907 CONDUIT    517.44     0  02:18      0.66    0.18    1.00
  YS02001887YS02001890 CONDUIT    606.14     0  02:15      0.77    1.04    1.00
  YS02001652YS02001649 CONDUIT    482.43     0  02:13      0.61    0.24    1.00
  YS02001655YS02001652 CONDUIT    482.13     0  02:13      1.09    0.23    1.00
  YS02001658YS02001655 CONDUIT    481.85     0  02:13      1.45    0.20    1.00
  YS02001661YS02001658 CONDUIT    513.89     0  02:14      1.85    0.20    1.00
  YS02001664YS02001661 CONDUIT    779.55     0  02:08      1.75    0.24    0.76
  YSB1154YSB6556       CONDUIT     43.64     0  01:53      0.17    0.08    0.72
  YSB1174YSB1171       CONDUIT     35.15     0  01:50      0.10    0.05    0.83
  YSB1171HS02004479    CONDUIT     78.01     0  01:53      0.54    0.05    0.67
  HS02004881HS02006253 CONDUIT    139.58     0  01:55      2.10    0.03    0.37
  YS02001793JiankangQianchi CONDUIT   1015.98     0  01:53     14.02    0.08    1.00
  YS02001757CaochengTiaoxuchi CONDUIT   2143.69     0  02:05      3.79    0.94    1.00
  WSF200WS02003060     CONDUIT    812.03     0  01:57      2.00    0.18    0.40
  1                    CONDUIT   1146.28     0  02:13      3.45    0.40    0.44
  2                    CONDUIT    303.24     0  01:51      6.43    0.73    0.63
  3                    CONDUIT    528.29     0  02:40      9.90    0.84    0.71
  4                    CONDUIT      0.00     0  00:00      0.00    0.00    0.00
  CC-Pump-1            PUMP       200.00     0  01:50              1.00
  CC-Pump-2            PUMP       200.00     0  01:40              1.00
  JK-Pump-1            PUMP       300.00     0  03:00              1.00
  JK-Pump-2            PUMP       300.00     0  00:00              1.00
  XR-Pump-1            PUMP        95.00     0  00:40              1.00
  XR-Pump-2            PUMP        95.00     0  00:30              1.00
  XR-Pump-3            PUMP        95.00     0  00:00              1.00
  XR-Pump-4            PUMP        95.00     0  00:20              1.00
  
  
  ***************************
  Flow Classification Summary
  ***************************
  
  -------------------------------------------------------------------------------------
                      Adjusted    ---------- Fraction of Time in Flow Class ---------- 
                       /Actual         Up    Down  Sub   Sup   Up    Down  Norm  Inlet 
  Conduit               Length    Dry  Dry   Dry   Crit  Crit  Crit  Crit  Ltd   Ctrl  
  -------------------------------------------------------------------------------------
  WS02003066WSF200        1.00   0.05  0.01  0.00  0.00  0.94  0.00  0.00  0.57  0.00
  WS02006287WS02006284    1.00   0.03  0.01  0.00  0.58  0.38  0.00  0.00  0.65  0.00
  WS02006284WS02006280    1.00   0.04  0.00  0.00  0.00  0.00  0.00  0.96  0.00  0.00
  WS02006280WS02006229    1.00   0.04  0.00  0.00  0.00  0.00  0.00  0.96  0.00  0.00
  WS02006229WS02006228    1.00   0.00  0.00  0.00  0.99  0.00  0.00  0.01  0.00  0.00
  WS02006256WS02006235    1.00   0.00  0.00  0.00  1.00  0.00  0.00  0.00  0.00  0.00
  WS02006253WS02006251    1.00   0.03  0.01  0.00  0.96  0.00  0.00  0.00  0.00  0.00
  WS02006252WS02006251    1.00   0.06  0.00  0.00  0.00  0.00  0.94  0.00  0.00  0.00
  WS02006251WS02006249    1.00   0.00  0.00  0.00  1.00  0.00  0.00  0.00  0.18  0.00
  WS02006249WS02006248    1.00   0.00  0.02  0.00  0.94  0.00  0.05  0.00  0.00  0.00
  WS02006248WS02006247    1.00   0.02  0.00  0.00  0.98  0.00  0.00  0.00  0.06  0.00
  WS02006247WS02006245    1.00   0.02  0.00  0.00  0.98  0.00  0.00  0.00  0.00  0.00
  WS02006245WS02006243    1.00   0.01  0.00  0.00  0.96  0.00  0.00  0.03  0.01  0.00
  WS02006243WS02006242    1.00   0.01  0.00  0.00  0.99  0.00  0.00  0.00  0.16  0.00
  WS02006242WS02006240    1.00   0.00  0.00  0.00  1.00  0.00  0.00  0.00  0.00  0.00
  WS02006240WS02006239    1.00   0.00  0.00  0.00  0.97  0.00  0.00  0.02  0.01  0.00
  WS02006239WS02006238    1.00   0.00  0.00  0.00  1.00  0.00  0.00  0.00  0.01  0.00
  WS02006238WS02006235    1.00   0.00  0.00  0.00  1.00  0.00  0.00  0.00  0.00  0.00
  WS02006235WS02006234    1.00   0.00  0.00  0.00  0.97  0.00  0.03  0.00  0.00  0.00
  WS02006234WS02006232    1.00   0.00  0.00  0.00  1.00  0.00  0.00  0.00  0.03  0.00
  WS02006232WS02006231    1.00   0.00  0.00  0.00  0.99  0.00  0.00  0.00  0.00  0.00
  WS02006231WS02006230    1.00   0.00  0.00  0.00  0.69  0.00  0.30  0.00  0.00  0.00
  WS02006230WS02006229    1.00   0.00  0.00  0.00  0.99  0.00  0.00  0.01  0.01  0.00
  WS02006228WS02006109    1.00   0.00  0.00  0.00  1.00  0.00  0.00  0.00  0.00  0.00
  WS02006116WS02004401    1.00   0.02  0.00  0.00  0.98  0.00  0.00  0.00  0.00  0.00
  WS02006115WS02006116    1.00   0.02  0.00  0.00  0.97  0.00  0.00  0.01  0.00  0.00
  WS02006113WS02006111    1.00   0.02  0.00  0.00  0.05  0.93  0.00  0.00  0.09  0.00
  WS02006112WS02006115    1.00   0.02  0.00  0.00  0.98  0.00  0.00  0.00  0.00  0.00
  WS02006111WS02006112    1.00   0.02  0.00  0.00  0.98  0.00  0.00  0.00  0.88  0.00
  WS02006110WS02006113    1.00   0.01  0.01  0.00  0.98  0.00  0.00  0.00  0.00  0.00
  WS02006109WS02006110    1.00   0.00  0.01  0.00  0.98  0.00  0.01  0.00  0.00  0.00
  WS02004411WS02004412    1.00   0.03  0.00  0.00  0.97  0.00  0.00  0.00  0.00  0.00
  WS02004401WS02004402    1.00   0.02  0.00  0.00  0.98  0.00  0.00  0.00  0.00  0.00
  WS02004413WS02003067    1.00   0.04  0.01  0.00  0.00  0.00  0.95  0.00  0.00  0.00
  WS02004412WS02004413    1.00   0.03  0.00  0.00  0.97  0.00  0.00  0.00  0.03  0.00
  WS02004410WS02004411    1.00   0.03  0.00  0.00  0.97  0.00  0.00  0.00  0.03  0.00
  WS02004409WS02004410    1.00   0.03  0.00  0.00  0.97  0.00  0.00  0.00  0.03  0.00
  WS02004407WS02004409    1.00   0.03  0.00  0.00  0.97  0.00  0.00  0.00  0.89  0.00
  WS02004406WS02004407    1.00   0.00  0.03  0.00  0.97  0.00  0.00  0.00  0.00  0.00
  WS02004405WS02004406    1.00   0.00  0.00  0.00  1.00  0.00  0.00  0.00  0.01  0.00
  WS02004404WS02004405    1.00   0.00  0.00  0.00  1.00  0.00  0.00  0.00  0.00  0.00
  WS02004403WS02004404    1.00   0.00  0.02  0.00  0.98  0.00  0.00  0.00  0.01  0.00
  WS02004402WS02004403    1.00   0.02  0.00  0.00  0.98  0.00  0.00  0.00  0.00  0.00
  WS02004139WS02001211    1.00   0.00  0.00  0.00  0.99  0.00  0.01  0.00  0.00  0.00
  WS02004138WS02004139    1.00   0.00  0.00  0.00  0.99  0.01  0.00  0.00  1.00  0.00
  WS02003067WS02003066    1.00   0.05  0.01  0.00  0.95  0.00  0.00  0.00  0.00  0.00
  WS02001213WS02003059    1.00   0.00  0.01  0.00  0.99  0.00  0.00  0.00  0.00  0.00
  WS02001212WS02001213    1.00   0.01  0.00  0.00  0.88  0.00  0.11  0.00  0.00  0.00
  WS02001211WS02001212    1.00   0.00  0.01  0.00  0.99  0.00  0.00  0.00  0.00  0.00
  WS02003072WS02003073    1.00   0.00  0.00  0.00  0.00  0.00  0.00  1.00  0.00  0.00
  WS02003069WS02003072    1.00   0.00  0.00  0.00  0.99  0.01  0.00  0.00  0.21  0.00
  WS02003060WS02003069    1.00   0.00  0.00  0.00  0.99  0.01  0.00  0.00  0.10  0.00
  WS02003059WS02003060    1.00   0.00  0.00  0.00  1.00  0.00  0.00  0.00  0.02  0.00
  HS02004901HS02004770    1.00   0.04  0.00  0.00  0.96  0.00  0.00  0.00  0.00  0.00
  HS02004876HS02004881    1.00   0.02  0.00  0.00  0.84  0.14  0.00  0.00  0.00  0.00
  HS02004870HS02004876    1.00   0.01  0.00  0.00  0.99  0.00  0.00  0.00  0.95  0.00
  HS02004842HS02004848    1.00   0.00  0.04  0.00  0.96  0.00  0.00  0.00  0.57  0.00
  HS02004837HS02004842    1.00   0.00  0.00  0.00  0.99  0.01  0.00  0.00  0.11  0.00
  HS02004830HS02004837    1.00   0.00  0.00  0.00  1.00  0.00  0.00  0.00  0.99  0.00
  HS02004824HS02004830    1.00   0.00  0.00  0.00  1.00  0.00  0.00  0.00  0.03  0.00
  HS02004817HS02004824    1.00   0.00  0.00  0.00  1.00  0.00  0.00  0.00  0.94  0.00
  HS02004770HS02004777    1.00   0.00  0.04  0.00  0.96  0.00  0.00  0.00  0.03  0.00
  HS02004799HS02004480    1.00   0.00  0.02  0.00  0.96  0.00  0.02  0.00  0.00  0.00
  HS02004792HS02004799    1.00   0.00  0.00  0.00  0.99  0.01  0.00  0.00  0.98  0.00
  HS02004788HS02004792    1.00   0.00  0.00  0.00  0.99  0.01  0.00  0.00  0.98  0.00
  HS02004785HS02004788    1.00   0.00  0.00  0.00  1.00  0.00  0.00  0.00  0.00  0.00
  HS02004777HS02004785    1.00   0.00  0.00  0.00  1.00  0.00  0.00  0.00  0.13  0.00
  HS02004480HS02004478    1.00   0.04  0.00  0.00  0.65  0.00  0.00  0.32  0.00  0.00
  HS02004479HS02004480    1.00   0.02  0.00  0.00  0.98  0.00  0.00  0.00  0.12  0.00
  HS02004862HS02004870    1.00   0.00  0.00  0.00  1.00  0.00  0.00  0.00  0.04  0.00
  HS02004848HS02004852    1.00   0.04  0.00  0.00  0.96  0.00  0.00  0.00  0.78  0.00
  HS02004856HS02004862    1.00   0.00  0.04  0.00  0.96  0.00  0.00  0.00  0.82  0.00
  HS02004852HS02004856    1.00   0.04  0.00  0.00  0.96  0.00  0.00  0.00  0.77  0.00
  HS02004802HS02004478    1.00   0.04  0.00  0.00  0.96  0.00  0.00  0.00  0.03  0.00
  HS02004478WS02006287    1.00   0.04  0.00  0.00  0.69  0.27  0.00  0.00  0.62  0.00
  HS02004817HS02004807    1.00   0.00  0.04  0.00  0.96  0.00  0.00  0.00  0.01  0.00
  HS02004807HS02004802    1.00   0.04  0.00  0.00  0.96  0.00  0.00  0.00  0.00  0.00
  YS02001759YS02001757    1.00   0.00  0.00  0.00  1.00  0.00  0.00  0.00  0.16  0.00
  YS02001762YS02001759    1.00   0.00  0.00  0.00  1.00  0.00  0.00  0.00  0.03  0.00
  YS02001765YS02001762    1.00   0.00  0.00  0.00  1.00  0.00  0.00  0.00  0.14  0.00
  YS02001770YS02001767    1.00   0.00  0.00  0.00  1.00  0.00  0.00  0.00  0.00  0.00
  YS02001774YS02001770    1.00   0.00  0.04  0.00  0.96  0.00  0.00  0.00  0.03  0.00
  YS02001779YS02001774    1.00   0.00  0.00  0.00  1.00  0.00  0.00  0.00  0.18  0.00
  YS02001649YS02001757    1.00   0.00  0.00  0.00  1.00  0.00  0.00  0.00  0.16  0.00
  YS02001767YS02001765    1.00   0.00  0.00  0.00  1.00  0.00  0.00  0.00  0.00  0.00
  YS02006561YS02001783    1.00   0.05  0.00  0.00  0.51  0.44  0.00  0.00  0.51  0.00
  YS02001783YS02001784    1.00   0.00  0.05  0.00  0.95  0.00  0.00  0.00  0.00  0.00
  YS02001784YS02001785    1.00   0.00  0.00  0.00  1.00  0.00  0.00  0.00  0.17  0.00
  YS02001788YS02001790    1.00   0.00  0.00  0.00  0.56  0.44  0.00  0.00  0.43  0.00
  YS02001790YS02001791    1.00   0.00  0.00  0.00  0.52  0.48  0.00  0.00  0.36  0.00
  YS02001791YS02001793    1.00   0.00  0.00  0.00  0.52  0.47  0.00  0.00  0.02  0.00
  YS02001910YS02001907    1.00   0.00  0.00  0.00  0.98  0.00  0.00  0.02  0.12  0.00
  YS02001786YS02001788    1.00   0.00  0.00  0.00  0.55  0.45  0.00  0.00  0.00  0.00
  YS02001915YS02001910    1.00   0.00  0.00  0.00  0.99  0.01  0.00  0.00  0.16  0.00
  YS02001918YS02001915    1.00   0.00  0.01  0.00  0.98  0.01  0.00  0.00  0.52  0.00
  YS02001923YS02001920    1.00   0.00  0.00  0.00  1.00  0.00  0.00  0.00  0.74  0.00
  YS02001926YS02001923    1.00   0.00  0.03  0.00  0.27  0.00  0.70  0.00  0.00  0.00
  YS02001929YS02001926    1.00   0.00  0.04  0.00  0.96  0.00  0.00  0.00  0.66  0.00
  YS02001920YS02001918    1.00   0.00  0.01  0.00  0.99  0.00  0.00  0.00  0.00  0.00
  YS02001629YS02163301    1.00   0.04  0.00  0.00  0.96  0.00  0.00  0.00  0.00  0.00
  YS02001619YS02001622    1.00   0.04  0.00  0.00  0.96  0.00  0.00  0.00  0.00  0.00
  YS02001622YS02001625    1.00   0.04  0.00  0.00  0.96  0.00  0.00  0.00  0.05  0.00
  YS02001625YS02001629    1.00   0.04  0.01  0.00  0.94  0.00  0.01  0.00  0.00  0.00
  YS02163301YS02001633    1.00   0.00  0.04  0.00  0.96  0.00  0.00  0.00  0.00  0.00
  YS02163601YS02164001    1.00   0.00  0.03  0.00  0.97  0.00  0.00  0.00  0.00  0.00
  YS02164001YS02001641    1.00   0.01  0.02  0.00  0.97  0.00  0.00  0.00  0.06  0.00
  YS02001641YS02001644    1.00   0.00  0.01  0.00  0.99  0.00  0.00  0.00  0.00  0.00
  YS02001647YS02001649    1.00   0.00  0.04  0.00  0.95  0.00  0.00  0.00  0.01  0.00
  YS02006553YS02006556    1.00   0.01  0.00  0.00  0.99  0.00  0.00  0.00  0.03  0.00
  YS02006556YS02006558    1.00   0.00  0.00  0.00  1.00  0.00  0.00  0.00  0.00  0.00
  YSB6556YSB1171          1.00   0.02  0.01  0.00  0.96  0.00  0.00  0.00  0.00  0.00
  YS02001907YS02006553    1.00   0.00  0.02  0.00  0.98  0.00  0.00  0.00  0.00  0.00
  YS02006558YS02006561    1.00   0.05  0.00  0.00  0.30  0.65  0.00  0.00  0.42  0.00
  YS02001633YS02163601    1.00   0.00  0.01  0.00  0.99  0.00  0.00  0.00  0.15  0.00
  YS02001644YS02001647    1.00   0.00  0.05  0.00  0.95  0.00  0.00  0.00  0.00  0.00
  YS02001745YS02001748    1.00   0.00  0.00  0.00  0.92  0.00  0.00  0.07  0.01  0.00
  YS02001748YS02001751    1.00   0.00  0.00  0.00  0.98  0.02  0.00  0.00  0.14  0.00
  YS02001751YS02001754    1.00   0.00  0.00  0.00  0.95  0.00  0.00  0.05  0.01  0.00
  YS02001754YS02001757    1.00   0.00  0.00  0.00  0.99  0.01  0.00  0.00  0.18  0.00
  YS02001882YS02001884    1.00   0.04  0.00  0.00  0.96  0.00  0.00  0.00  0.00  0.00
  YS02001884YS02001887    1.00   0.03  0.01  0.00  0.96  0.00  0.00  0.00  0.00  0.00
  YS02001890YS02001895    1.00   0.00  0.04  0.00  0.96  0.00  0.00  0.00  0.00  0.00
  YS02001895YS02001898    1.00   0.04  0.00  0.00  0.95  0.00  0.00  0.00  0.00  0.00
  YS02001898YS02001901    1.00   0.04  0.00  0.00  0.96  0.00  0.00  0.00  0.01  0.00
  YS02001901YS02001904    1.00   0.04  0.00  0.00  0.96  0.00  0.00  0.00  0.00  0.00
  YS02001904YS02001907    1.00   0.00  0.04  0.00  0.96  0.00  0.00  0.00  0.00  0.00
  YS02001887YS02001890    1.00   0.00  0.00  0.00  0.98  0.00  0.02  0.00  0.00  0.00
  YS02001652YS02001649    1.00   0.00  0.00  0.00  1.00  0.00  0.00  0.00  0.16  0.00
  YS02001655YS02001652    1.00   0.00  0.00  0.00  0.95  0.00  0.00  0.05  0.01  0.00
  YS02001658YS02001655    1.00   0.00  0.04  0.00  0.94  0.02  0.00  0.00  0.02  0.00
  YS02001661YS02001658    1.00   0.04  0.00  0.00  0.92  0.04  0.00  0.00  0.00  0.00
  YS02001664YS02001661    1.00   0.04  0.00  0.00  0.92  0.04  0.00  0.00  0.10  0.00
  YSB1154YSB6556          1.00   0.04  0.00  0.00  0.96  0.00  0.00  0.00  0.02  0.00
  YSB1174YSB1171          1.00   0.03  0.01  0.00  0.97  0.00  0.00  0.00  0.00  0.00
  YSB1171HS02004479       1.00   0.02  0.00  0.00  0.97  0.00  0.00  0.00  0.11  0.00
  HS02004881HS02006253    1.00   0.03  0.00  0.00  0.84  0.01  0.00  0.12  0.70  0.00
  YS02001793JiankangQianchi    1.00   0.00  0.00  0.00  0.63  0.37  0.00  0.00  0.09  0.00
  YS02001757CaochengTiaoxuchi    1.00   0.00  0.06  0.00  0.89  0.05  0.00  0.00  0.00  0.00
  WSF200WS02003060        1.00   0.00  0.05  0.00  0.52  0.43  0.00  0.00  0.12  0.00
  1                       1.00   0.00  0.00  0.00  0.00  1.00  0.00  0.00  0.37  0.00
  2                       1.00   0.50  0.00  0.00  0.00  0.50  0.00  0.00  0.13  0.00
  3                       1.00   0.06  0.00  0.00  0.00  0.94  0.00  0.00  0.19  0.00
  4                       1.00   1.00  0.00  0.00  0.00  0.00  0.00  0.00  0.00  0.00
  
  
  *************************
  Conduit Surcharge Summary
  *************************
  
  ----------------------------------------------------------------------------
                                                           Hours        Hours 
                         --------- Hours Full --------   Above Full   Capacity
  Conduit                Both Ends  Upstream  Dnstream   Normal Flow   Limited
  ----------------------------------------------------------------------------
  WS02006229WS02006228        2.88      3.16      2.88      5.31         2.88
  WS02006256WS02006235        6.35      6.35      7.59      2.81         0.01
  WS02006253WS02006251        0.15      0.15      0.30      0.01         0.01
  WS02006252WS02006251        1.18      1.18      2.69      2.30         0.01
  WS02006251WS02006249        0.01      0.19      0.01      1.64         0.01
  WS02006249WS02006248        0.01      0.01      0.01      5.18         0.01
  WS02006248WS02006247        0.01      0.01      0.34      0.01         0.01
  WS02006247WS02006245        0.34      0.45      0.34      5.52         0.33
  WS02006245WS02006243        0.43      0.43      0.85      0.01         0.01
  WS02006243WS02006242        0.95      0.95      2.11      0.01         0.01
  WS02006242WS02006240        1.29      1.29      2.61      2.35         0.01
  WS02006240WS02006239        1.42      1.42      1.51      0.01         0.01
  WS02006239WS02006238        2.50      2.50      2.66      0.01         0.01
  WS02006238WS02006235        2.50      2.50      3.00      0.01         0.01
  WS02006235WS02006234        1.41      1.41      2.27      6.37         0.05
  WS02006234WS02006232        1.55      1.55      3.13      0.01         0.01
  WS02006232WS02006231        1.21      1.21      3.13      0.01         0.01
  WS02006231WS02006230        0.82      0.82      1.28      6.36         0.01
  WS02006230WS02006229        3.97      4.83      3.97      6.45         3.96
  WS02006228WS02006109        3.01      3.55      3.01      6.05         3.01
  WS02006116WS02004401        0.57      0.57      0.58      0.47         0.47
  WS02006115WS02006116        0.32      0.32      0.33      0.21         0.21
  WS02006112WS02006115        0.28      0.28      1.55      0.01         0.01
  WS02006111WS02006112        0.01      0.01      5.45      0.01         0.01
  WS02006110WS02006113        0.01      0.01      3.34      0.01         0.01
  WS02006109WS02006110        1.46      1.46      3.56      1.46         0.01
  WS02004411WS02004412        0.01      0.01      0.01      0.55         0.01
  WS02004401WS02004402        0.58      0.58      0.63      0.01         0.01
  WS02004410WS02004411        0.01      0.01      0.01      0.41         0.01
  WS02004409WS02004410        0.01      0.01      0.01      0.23         0.01
  WS02004406WS02004407        0.01      0.01      0.72      0.01         0.01
  WS02004405WS02004406        0.72      0.75      0.72      1.50         0.72
  WS02004404WS02004405        0.75      0.97      0.75      6.25         0.75
  WS02004403WS02004404        0.63      0.63      0.97      0.01         0.01
  WS02004402WS02004403        0.63      0.63      0.63      0.57         0.56
  WS02003072WS02003073        0.01      0.01      0.01      5.65         0.01
  HS02004876HS02004881        0.01      0.01      0.01      0.49         0.01
  HS02004785HS02004788        0.01      0.01      0.01      0.35         0.01
  HS02004480HS02004478        0.01      0.01      0.01      0.79         0.01
  YS02001759YS02001757        6.09      6.09      6.12      0.01         0.01
  YS02001762YS02001759        6.08      6.08      6.09      0.01         0.01
  YS02001765YS02001762        6.08      6.08      6.08      0.01         0.01
  YS02001770YS02001767        6.07      6.07      6.07      0.46         0.89
  YS02001774YS02001770        6.07      6.07      6.08      0.01         0.01
  YS02001779YS02001774        6.04      6.04      6.08      0.01         0.01
  YS02001649YS02001757        6.08      6.08      6.12      0.01         0.01
  YS02001767YS02001765        6.07      6.07      6.08      0.01         0.01
  YS02006561YS02001783        1.64      1.64      2.13      0.01         0.01
  YS02001783YS02001784        2.11      2.13      2.19      2.02         1.92
  YS02001784YS02001785        2.10      2.19      2.10      2.75         2.09
  YS02001788YS02001790        2.08      2.08      3.24      0.01         0.01
  YS02001790YS02001791        3.24      3.24      3.26      1.49         1.48
  YS02001791YS02001793        3.26      3.26      3.34      0.01         0.01
  YS02001910YS02001907        1.94      1.94      2.26      0.01         0.01
  YS02001786YS02001788        2.08      2.10      2.08      2.40         2.08
  YS02001915YS02001910        1.75      1.75      1.94      0.01         0.01
  YS02001918YS02001915        1.53      1.53      1.75      0.01         0.01
  YS02001923YS02001920        1.35      1.35      1.56      0.01         0.01
  YS02001926YS02001923        0.01      0.01      0.01      0.01         0.01
  YS02001929YS02001926        0.01      0.01      0.01      0.01         0.01
  YS02001920YS02001918        1.53      1.53      1.56      0.01         0.01
  YS02001629YS02163301        6.06      6.06      6.07      0.01         0.01
  YS02001619YS02001622        6.02      6.02      6.02      0.01         0.01
  YS02001622YS02001625        6.02      6.02      6.05      0.01         0.01
  YS02001625YS02001629        6.02      6.02      6.05      0.01         0.01
  YS02163301YS02001633        6.07      6.07      6.08      0.01         0.01
  YS02163601YS02164001        6.08      6.08      6.09      0.01         0.01
  YS02164001YS02001641        6.08      6.08      6.08      0.01         0.02
  YS02001641YS02001644        6.08      6.08      6.08      2.21         2.07
  YS02001647YS02001649        6.05      6.05      6.08      0.01         0.01
  YS02006553YS02006556        2.11      2.11      2.30      0.01         0.01
  YS02006556YS02006558        2.18      2.18      2.37      0.01         0.01
  YSB6556YSB1171              0.01      0.01      0.14      0.01         0.01
  YS02001907YS02006553        2.76      2.76      2.95      0.01         0.01
  YS02006558YS02006561        1.81      2.09      1.81      2.63         1.81
  YS02001633YS02163601        6.08      6.08      6.09      0.01         0.01
  YS02001644YS02001647        6.05      6.05      6.08      0.01         0.01
  YS02001745YS02001748        0.01      0.01      5.99      0.01         0.01
  YS02001748YS02001751        6.00      6.00      6.02      0.01         0.01
  YS02001751YS02001754        6.02      6.02      6.04      0.01         0.01
  YS02001754YS02001757        6.05      6.05      6.12      0.01         0.01
  YS02001882YS02001884        1.76      1.76      1.79      0.01         0.01
  YS02001884YS02001887        1.84      1.84      1.87      0.01         0.01
  YS02001890YS02001895        1.73      1.73      1.96      0.01         0.01
  YS02001895YS02001898        1.72      1.72      1.73      0.01         0.01
  YS02001898YS02001901        1.74      1.74      1.83      0.01         0.01
  YS02001901YS02001904        1.82      1.82      1.83      0.01         0.01
  YS02001904YS02001907        1.82      1.82      2.34      0.01         0.01
  YS02001887YS02001890        1.90      1.90      1.92      0.20         0.01
  YS02001652YS02001649        6.06      6.06      6.08      0.01         0.01
  YS02001655YS02001652        6.02      6.02      6.05      0.01         0.01
  YS02001658YS02001655        6.00      6.00      6.02      0.01         0.01
  YS02001661YS02001658        0.31      0.31      6.00      0.01         0.01
  YS02001664YS02001661        0.01      0.01      1.56      0.01         0.01
  YS02001793JiankangQianchi        3.32      3.32      4.00      0.01         0.01
  YS02001757CaochengTiaoxuchi        5.56      5.56      6.12      0.01         0.01
  
  
  ***************
  Pumping Summary
  ***************
  
  ---------------------------------------------------------------------------------------------------------
                                                  Min       Avg       Max     Total     Power    % Time Off
                        Percent   Number of      Flow      Flow      Flow    Volume     Usage    Pump Curve
  Pump                 Utilized   Start-Ups       LPS       LPS       LPS  10^6 ltr     Kw-hr    Low   High
  ---------------------------------------------------------------------------------------------------------
  CC-Pump-1               70.77           4      0.00    140.55    200.00     2.762      3.65    0.0    6.1
  CC-Pump-2               68.64           4      0.00    138.81    200.00     2.649      3.34    0.0    6.2
  JK-Pump-1               80.84           7      0.00    167.20    300.00     3.110     33.95    0.0    0.0
  JK-Pump-2               72.34           8      0.00    159.58    300.00     2.694     29.05    0.0    0.0
  XR-Pump-1               72.32          11      0.00     57.70     95.00     1.225      7.87    0.0    0.0
  XR-Pump-2               68.07           7      0.00     71.32     95.00     1.368      8.70    0.0    0.0
  XR-Pump-3               87.23           6      0.00     75.21     95.00     1.824     10.99    0.0    0.0
  XR-Pump-4               82.96           6      0.00     65.19     95.00     1.539      9.18    0.0    0.0
  

  Analysis begun on:  Thu Jan  6 18:04:48 2022
  Analysis ended on:  Thu Jan  6 18:04:52 2022
  Total elapsed time: 00:00:04