
  EPA STORM WATER MANAGEMENT MODEL - VERSION 5.1 (Build 5.3.0.dev0)
  --------------------------------------------------------------

  WARNING 04: minimum elevation drop used for Conduit WS02004404WS02004405
  WARNING 03: negative offset ignored for Link YS02001904YS02001907
  
  *********************************************************
  NOTE: The summary statistics displayed in this report are
  based on results found at every computational time step,  
  not just on results from each reporting time step.
  *********************************************************
  
  ****************
  Analysis Options
  ****************
  Flow Units ............... LPS
  Process Models:
    Rainfall/Runoff ........ YES
    RDII ................... NO
    Snowmelt ............... NO
    Groundwater ............ NO
    Flow Routing ........... YES
    Ponding Allowed ........ NO
    Water Quality .......... NO
  Infiltration Method ...... HORTON
  Flow Routing Method ...... DYNWAVE
  Surcharge Method ......... EXTRAN
  Starting Date ............ 08/28/2015 08:00:00
  Ending Date .............. 08/28/2015 15:50:00
  Antecedent Dry Days ...... 8.0
  Report Time Step ......... 00:01:00
  Wet Time Step ............ 00:01:00
  Dry Time Step ............ 00:01:00
  Routing Time Step ........ 5.00 sec
  Variable Time Step ....... YES
  Maximum Trials ........... 8
  Number of Threads ........ 4
  Head Tolerance ........... 0.001500 m
  
  
  **************************        Volume         Depth
  Runoff Quantity Continuity     hectare-m            mm
  **************************     ---------       -------
  Total Precipitation ......         2.737         5.993
  Evaporation Loss .........         0.000         0.000
  Infiltration Loss ........         0.688         1.506
  Surface Runoff ...........         1.163         2.547
  Final Storage ............         0.887         1.941
  Continuity Error (%) .....        -0.018
  
  
  **************************        Volume        Volume
  Flow Routing Continuity        hectare-m      10^6 ltr
  **************************     ---------     ---------
  Dry Weather Inflow .......         0.616         6.165
  Wet Weather Inflow .......         1.163        11.626
  Groundwater Inflow .......         0.000         0.000
  RDII Inflow ..............         0.000         0.000
  External Inflow ..........         0.102         1.024
  External Outflow .........         1.176        11.757
  Flooding Loss ............         0.151         1.507
  Evaporation Loss .........         0.000         0.000
  Exfiltration Loss ........         0.000         0.000
  Initial Stored Volume ....         0.076         0.761
  Final Stored Volume ......         0.629         6.287
  Continuity Error (%) .....         0.122
  
  
  *************************
  Highest Continuity Errors
  *************************
  Node YS02001774 (39.02%)
  Node HS02004842 (28.25%)
  Node YS02001884 (22.37%)
  Node YSB1171 (6.84%)
  Node YS02001625 (5.55%)
  
  
  ***************************
  Time-Step Critical Elements
  ***************************
  Link 3 (76.74%)
  Link WS02006280WS02006229 (9.91%)
  Link WS02006238WS02006235 (3.73%)
  Link YS02001791YS02001793 (2.92%)
  
  
  ********************************
  Highest Flow Instability Indexes
  ********************************
  Link WS02006113WS02006111 (33)
  Link YS02006558YS02006561 (23)
  Link WS02006111WS02006112 (15)
  Link YS02001779YS02001774 (9)
  Link YS02001774YS02001770 (8)
  
  
  *************************
  Routing Time Step Summary
  *************************
  Minimum Time Step           :     0.53 sec
  Average Time Step           :     1.51 sec
  Maximum Time Step           :     5.00 sec
  Percent in Steady State     :    -0.00
  Average Iterations per Step :     2.99
  Percent Not Converging      :    11.13
  
  
  ***************************
  Subcatchment Runoff Summary
  ***************************
  
  ------------------------------------------------------------------------------------------------------------------------------
                            Total      Total      Total      Total     Imperv       Perv      Total       Total     Peak  Runoff
                           Precip      Runon       Evap      Infil     Runoff     Runoff     Runoff      Runoff   Runoff   Coeff
  Subcatchment                 mm         mm         mm         mm         mm         mm         mm    10^6 ltr      LPS
  ------------------------------------------------------------------------------------------------------------------------------
  sub0                       5.99       0.00       0.00       0.42       4.31       0.00       4.31        0.00     1.60   0.719
  sub1                       5.99       0.00       0.00       0.66       4.08       0.00       4.08        0.03     8.14   0.681
  sub2                       5.99       0.00       0.00       2.22       2.87       0.00       2.87        0.03     7.15   0.479
  sub3                       5.99       0.00       0.00       2.22       2.84       0.00       2.84        0.06    14.58   0.473
  sub4                       5.99       0.00       0.00       0.66       3.94       0.00       3.94        0.08    16.23   0.658
  sub5                       5.99       0.00       0.00       0.42       4.26       0.00       4.26        0.05    14.47   0.711
  sub7                       5.99       0.00       0.00       0.54       4.20       0.00       4.20        0.01     5.17   0.701
  sub8                       5.99       0.00       0.00       0.54       4.19       0.00       4.19        0.03     9.08   0.699
  sub9                       5.99       0.00       0.00       0.54       4.19       0.00       4.19        0.02     6.72   0.699
  sub10                      5.99       0.00       0.00       0.48       4.22       0.00       4.22        0.05    14.48   0.705
  sub11                      5.99       0.00       0.00       0.48       4.24       0.00       4.24        0.05    17.11   0.707
  sub12                      5.99       0.00       0.00       0.78       4.03       0.00       4.03        0.04    14.66   0.672
  sub14                      5.99       0.00       0.00       0.54       4.19       0.00       4.19        0.04    13.13   0.699
  sub15                      5.99       0.00       0.00       1.80       3.22       0.00       3.22        0.06    17.78   0.537
  sub16                      5.99       0.00       0.00       1.98       3.10       0.00       3.10        0.03    12.85   0.517
  sub17                      5.99       0.00       0.00       1.92       3.14       0.00       3.14        0.03    10.35   0.524
  sub22                      5.99       0.00       0.00       2.58       2.63       0.00       2.63        0.17    58.61   0.438
  sub23                      5.99       0.00       0.00       2.22       2.91       0.00       2.91        0.14    49.95   0.485
  sub60                      5.99       0.00       0.00       0.72       2.84       0.00       2.84        0.86    79.26   0.473
  sub61                      5.99       0.00       0.00       1.02       3.03       0.00       3.03        0.94   100.33   0.506
  sub62                      5.99       0.00       0.00       0.48       3.25       0.00       3.25        1.00   102.25   0.543
  sub63                      5.99       0.00       0.00       1.74       2.70       0.00       2.70        0.82    94.01   0.451
  sub64                      5.99       0.00       0.00       0.90       2.71       0.00       2.71        0.82    75.25   0.453
  sub65                      5.99       0.00       0.00       0.78       2.75       0.00       2.75        0.84    76.32   0.458
  sub66                      5.99       0.00       0.00       1.74       2.37       0.00       2.37        0.73    69.14   0.395
  sub67                      5.99       0.00       0.00       0.48       3.57       0.00       3.57        1.10   132.46   0.596
  sub68                      5.99       0.00       0.00       0.84       3.23       0.00       3.23        0.99   111.20   0.538
  sub69                      5.99       0.00       0.00       0.90       3.48       0.00       3.48        0.81   111.68   0.581
  sub70                      5.99       3.55       0.00       3.25       4.28       0.00       4.28        0.98    88.41   0.448
  sub71                      5.99       0.00       0.00       0.48       3.11       0.00       3.11        0.73    71.14   0.519
  sub72                      5.99       0.00       0.00       0.42       2.20       0.00       2.20        0.45    33.50   0.367
  sub73                      5.99       4.16       0.00       3.45       4.36       0.00       4.36        1.02    75.96   0.429
  sub74                      5.99       0.00       0.00       4.49       1.05       0.00       1.05        0.42    62.58   0.175
  
  
  ******************
  Node Depth Summary
  ******************
  
  ---------------------------------------------------------------------------------
                                 Average  Maximum  Maximum  Time of Max    Reported
                                   Depth    Depth      HGL   Occurrence   Max Depth
  Node                 Type       Meters   Meters   Meters  days hr:min      Meters
  ---------------------------------------------------------------------------------
  WS02001211           JUNCTION     0.67     0.70     5.54     0  02:45        0.70
  WS02001212           JUNCTION     0.39     0.42     5.48     0  02:44        0.42
  WS02001213           JUNCTION     0.60     0.66     5.42     0  02:43        0.66
  WS02003069           JUNCTION     0.37     0.48     5.06     0  02:42        0.48
  WS02003072           JUNCTION     0.44     0.54     4.91     0  02:42        0.54
  WS02003073           JUNCTION     0.26     0.33     4.39     0  02:43        0.33
  WS02003060           JUNCTION     0.34     0.42     5.35     0  02:41        0.42
  WS02003066           JUNCTION     0.17     0.25     5.81     0  02:39        0.25
  WS02003059           JUNCTION     0.65     0.72     5.40     0  02:42        0.72
  WS02003067           JUNCTION     0.44     0.62     5.94     0  02:39        0.62
  WS02004401           JUNCTION     0.50     0.71     6.71     0  02:34        0.71
  WS02004402           JUNCTION     0.53     0.74     6.70     0  02:35        0.74
  WS02004403           JUNCTION     0.56     0.77     6.70     0  02:35        0.77
  WS02004404           JUNCTION     0.64     0.84     6.69     0  02:35        0.84
  WS02004406           JUNCTION     0.65     0.85     6.68     0  02:35        0.85
  WS02004409           JUNCTION     0.32     0.53     6.30     0  02:37        0.53
  WS02004410           JUNCTION     0.34     0.55     6.27     0  02:38        0.55
  WS02004411           JUNCTION     0.36     0.57     6.25     0  02:38        0.57
  WS02004412           JUNCTION     0.39     0.58     6.22     0  02:38        0.58
  WS02004413           JUNCTION     0.54     0.75     6.22     0  02:39        0.75
  WS02004405           JUNCTION     0.63     0.84     6.69     0  02:35        0.84
  WS02006109           JUNCTION     0.56     0.79     7.41     0  02:30        0.79
  WS02006110           JUNCTION     0.57     0.78     7.37     0  02:29        0.78
  WS02006111           JUNCTION     0.14     0.23     6.94     0  02:29        0.23
  WS02006112           JUNCTION     0.65     0.88     6.77     0  02:34        0.88
  WS02006113           JUNCTION     0.22     0.36     7.26     0  02:29        0.36
  WS02006115           JUNCTION     0.38     0.60     6.74     0  02:34        0.60
  WS02006116           JUNCTION     0.47     0.68     6.72     0  02:34        0.68
  WS02006230           JUNCTION     0.46     0.73     7.48     0  02:29        0.73
  WS02006231           JUNCTION     0.27     0.40     7.53     0  02:32        0.40
  WS02006232           JUNCTION     0.37     0.52     7.56     0  02:31        0.52
  WS02006234           JUNCTION     0.28     0.42     7.57     0  02:33        0.41
  WS02006235           JUNCTION     0.30     0.44     7.60     0  02:32        0.44
  WS02006238           JUNCTION     0.32     0.46     7.60     0  02:32        0.46
  WS02006240           JUNCTION     0.19     0.31     7.60     0  02:31        0.31
  WS02006242           JUNCTION     0.21     0.34     7.61     0  02:32        0.34
  WS02006243           JUNCTION     0.09     0.19     7.61     0  02:32        0.19
  WS02006245           JUNCTION     0.07     0.17     7.65     0  02:19        0.17
  WS02006247           JUNCTION     0.08     0.20     7.70     0  02:19        0.20
  WS02006248           JUNCTION     0.05     0.15     7.74     0  02:18        0.15
  WS02006249           JUNCTION     0.09     0.20     7.79     0  02:18        0.20
  WS02006239           JUNCTION     0.26     0.39     7.60     0  02:32        0.39
  WS02006251           JUNCTION     0.06     0.17     7.84     0  02:17        0.17
  WS02006252           JUNCTION     0.00     0.00     8.24     0  00:00        0.00
  WS02006253           JUNCTION     0.10     0.23     7.88     0  02:16        0.23
  WS02006256           JUNCTION     0.91     1.62     8.56     0  02:46        1.19
  WS02004138           JUNCTION     0.16     0.17     7.42     0  06:27        0.17
  WS02004407           JUNCTION     0.14     0.24     6.55     0  02:35        0.24
  WS02006228           JUNCTION     0.53     0.79     7.44     0  02:31        0.79
  WS02006229           JUNCTION     0.50     0.77     7.47     0  02:30        0.77
  WS02006280           JUNCTION     0.06     0.15     8.42     0  02:17        0.15
  WS02006284           JUNCTION     0.36     0.49     8.89     0  02:17        0.49
  WS02006287           JUNCTION     0.09     0.22     9.18     0  02:16        0.22
  WSF200               JUNCTION     0.14     0.23     5.47     0  02:38        0.23
  HS02004901           JUNCTION     0.12     0.24    10.06     0  02:14        0.24
  HS02004881           JUNCTION     0.01     0.03     9.05     0  02:16        0.03
  HS02004876           JUNCTION     0.04     0.10     9.13     0  02:14        0.10
  HS02004870           JUNCTION     0.01     0.04     9.33     0  02:17        0.04
  HS02004862           JUNCTION     0.02     0.05     9.43     0  02:17        0.05
  HS02004856           JUNCTION     0.08     0.11     9.53     0  02:17        0.11
  HS02004852           JUNCTION     0.01     0.03     9.54     0  02:18        0.03
  HS02004848           JUNCTION     0.01     0.03     9.63     0  02:16        0.03
  HS02004842           JUNCTION     0.33     0.36     9.63     0  02:16        0.36
  HS02004837           JUNCTION     0.03     0.05     9.63     0  02:16        0.05
  HS02004830           JUNCTION     0.04     0.06     9.53     0  02:16        0.06
  HS02004824           JUNCTION     0.02     0.04     9.44     0  02:19        0.04
  HS02004817           JUNCTION     0.43     0.53     9.38     0  02:17        0.53
  HS02004807           JUNCTION     0.12     0.21     9.38     0  02:17        0.21
  HS02004802           JUNCTION     0.16     0.24     9.37     0  02:17        0.24
  HS02004799           JUNCTION     0.11     0.27     9.48     0  02:15        0.27
  HS02004792           JUNCTION     0.03     0.10     9.63     0  02:14        0.10
  HS02004788           JUNCTION     0.02     0.08     9.98     0  02:15        0.08
  HS02004785           JUNCTION     0.04     0.14    10.04     0  02:15        0.14
  HS02004777           JUNCTION     0.14     0.26    10.06     0  02:15        0.26
  HS02004770           JUNCTION     0.11     0.23    10.06     0  02:14        0.23
  HS02004480           JUNCTION     0.08     0.21     9.45     0  02:16        0.21
  HS02004479           JUNCTION     0.11     0.25     9.45     0  02:15        0.25
  HS02004478           JUNCTION     0.06     0.13     9.36     0  02:17        0.13
  YS02001745           JUNCTION     0.43     0.85     8.36     0  05:16        0.85
  YS02001748           JUNCTION     0.78     1.29     8.36     0  05:16        1.29
  YS02001751           JUNCTION     0.95     1.68     8.56     0  03:39        1.48
  YS02001754           JUNCTION     1.20     1.76     8.37     0  03:39        1.75
  YS02001762           JUNCTION     1.39     1.97     8.37     0  05:12        1.96
  YS02001765           JUNCTION     1.35     1.92     8.37     0  05:12        1.91
  YS02001767           JUNCTION     1.31     1.88     8.36     0  05:12        1.87
  YS02001770           JUNCTION     1.31     1.87     8.36     0  05:12        1.87
  YS02001774           JUNCTION     1.37     1.94     8.37     0  05:12        1.94
  YS02001779           JUNCTION     1.13     1.68     8.37     0  05:12        1.68
  YS02001882           JUNCTION     0.31     0.47     7.18     0  02:47        0.47
  YS02001884           JUNCTION     0.41     0.57     7.18     0  02:48        0.57
  YS02001759           JUNCTION     1.43     2.00     8.36     0  05:12        2.00
  YS02001887           JUNCTION     0.48     0.65     7.18     0  02:48        0.65
  YS02001890           JUNCTION     0.52     0.68     7.18     0  02:47        0.68
  YS02001898           JUNCTION     0.28     0.43     7.17     0  02:51        0.43
  YS02001901           JUNCTION     0.40     0.56     7.17     0  02:50        0.56
  YS02001904           JUNCTION     0.38     0.53     7.16     0  02:50        0.53
  YS02001907           JUNCTION     0.71     0.87     7.16     0  02:50        0.87
  YS02001910           JUNCTION     0.50     0.66     7.16     0  02:50        0.66
  YS02001915           JUNCTION     0.30     0.45     7.16     0  02:49        0.44
  YS02001918           JUNCTION     0.08     0.10     7.16     0  03:03        0.10
  YS02001619           JUNCTION     0.92     1.45     8.38     0  05:01        1.43
  YS02001629           JUNCTION     1.26     1.82     8.37     0  05:01        1.81
  YS02001641           JUNCTION     1.36     1.92     8.36     0  05:01        1.92
  YS02001644           JUNCTION     1.37     1.92     8.35     0  05:01        1.92
  YS02001652           JUNCTION     1.21     1.76     8.36     0  05:16        1.76
  YS02001655           JUNCTION     0.98     1.60     8.45     0  03:32        1.51
  YS02001920           JUNCTION     0.18     0.21     7.22     0  03:02        0.21
  YS02001923           JUNCTION     0.07     0.09     7.35     0  03:01        0.09
  YS02001926           JUNCTION     0.15     0.18     7.62     0  03:01        0.18
  YS02001929           JUNCTION     0.07     0.09     7.78     0  03:01        0.09
  YS02001658           JUNCTION     0.72     1.22     8.36     0  05:09        1.22
  YS02001661           JUNCTION     0.53     0.96     8.36     0  05:09        0.96
  YS02001664           JUNCTION     0.21     0.44     8.36     0  05:10        0.44
  YS02001622           JUNCTION     0.94     1.48     8.38     0  05:01        1.45
  YS02001633           JUNCTION     1.35     1.92     8.37     0  05:01        1.90
  YS02001649           JUNCTION     1.40     1.97     8.36     0  05:12        1.97
  YS02001757           JUNCTION     1.53     2.10     8.36     0  05:12        2.10
  YS02001895           JUNCTION     0.28     0.43     7.17     0  02:47        0.43
  YS02001625           JUNCTION     1.21     1.77     8.38     0  05:01        1.75
  YS02163301           JUNCTION     1.29     1.85     8.37     0  05:01        1.84
  YS02163601           JUNCTION     1.40     1.97     8.36     0  05:01        1.96
  YS02164001           JUNCTION     1.34     1.90     8.36     0  05:01        1.90
  YS02001647           JUNCTION     1.20     1.75     8.36     0  05:12        1.75
  YSB1154              JUNCTION     0.25     0.39     9.45     0  02:16        0.39
  YSB6556              JUNCTION     0.14     0.28     9.45     0  02:15        0.28
  YSB1174              JUNCTION     0.20     0.34     9.45     0  02:16        0.34
  YSB1171              JUNCTION     0.40     0.55     9.45     0  02:15        0.55
  YS02006553           JUNCTION     0.71     0.88     7.16     0  02:50        0.88
  YS02006561           JUNCTION     0.15     0.23     6.89     0  02:47        0.23
  YS02006556           JUNCTION     0.69     0.85     7.16     0  02:48        0.85
  YS02006558           JUNCTION     0.73     0.89     7.16     0  02:48        0.89
  YS02001783           JUNCTION     0.27     0.41     6.56     0  02:47        0.41
  YS02001784           JUNCTION     0.30     0.44     6.51     0  02:48        0.44
  YS02001786           JUNCTION     0.26     0.37     6.40     0  02:47        0.37
  YS02001788           JUNCTION     0.19     0.28     6.26     0  02:47        0.28
  YS02001790           JUNCTION     0.23     0.34     5.99     0  02:48        0.34
  YS02001791           JUNCTION     0.15     0.35     5.82     0  02:41        0.31
  YS02001793           JUNCTION     0.27     2.99     7.82     0  02:40        1.00
  WS02004139           JUNCTION     0.62     0.65     5.56     0  02:45        0.65
  WSC                  OUTFALL      0.26     0.33     1.00     0  02:43        0.33
  3                    OUTFALL      0.08     0.22     6.22     0  03:07        0.19
  4                    OUTFALL      0.00     0.00     7.00     0  00:00        0.00
  5                    OUTFALL      0.00     0.00     5.00     0  00:00        0.00
  JK-storage           STORAGE      4.08     4.87     5.67     0  02:46        4.85
  CC-storage           STORAGE      0.79     1.37     8.37     0  05:15        1.37
  XR-storage           STORAGE      7.23     7.72     5.72     0  02:55        7.72
  
  
  *******************
  Node Inflow Summary
  *******************
  
  -------------------------------------------------------------------------------------------------
                                  Maximum  Maximum                  Lateral       Total        Flow
                                  Lateral    Total  Time of Max      Inflow      Inflow     Balance
                                   Inflow   Inflow   Occurrence      Volume      Volume       Error
  Node                 Type           LPS      LPS  days hr:min    10^6 ltr    10^6 ltr     Percent
  -------------------------------------------------------------------------------------------------
  WS02001211           JUNCTION      7.35   294.53     0  06:28       0.207        7.02       0.543
  WS02001212           JUNCTION      0.00   293.35     0  02:54           0        6.98       0.278
  WS02001213           JUNCTION      0.00   293.70     0  02:53           0        6.96       0.309
  WS02003069           JUNCTION      0.32   661.32     0  02:41     0.00902        10.1       0.207
  WS02003072           JUNCTION      0.00   661.31     0  02:42           0          10       0.273
  WS02003073           JUNCTION      1.82   663.14     0  02:42      0.0514        10.1       0.295
  WS02003060           JUNCTION     16.53   660.99     0  02:41       0.466        10.1       0.200
  WS02003066           JUNCTION      0.00   354.85     0  02:39           0         2.7       0.074
  WS02003059           JUNCTION      0.00   294.41     0  02:53           0        6.94       0.539
  WS02003067           JUNCTION      0.00   354.85     0  02:39           0        2.71       0.190
  WS02004401           JUNCTION      0.00   359.99     0  02:32           0        2.83       0.420
  WS02004402           JUNCTION      0.00   359.77     0  02:34           0        2.82       0.424
  WS02004403           JUNCTION      0.00   359.38     0  02:34           0        2.81       0.407
  WS02004404           JUNCTION      0.16   359.44     0  02:35     0.00457         2.8       0.349
  WS02004406           JUNCTION      0.00   359.27     0  02:35           0        2.78       0.817
  WS02004409           JUNCTION      0.00   358.93     0  02:35           0        2.76       0.180
  WS02004410           JUNCTION      0.00   357.66     0  02:36           0        2.75       0.253
  WS02004411           JUNCTION      0.00   356.40     0  02:36           0        2.74       0.295
  WS02004412           JUNCTION      0.00   355.62     0  02:37           0        2.74       0.369
  WS02004413           JUNCTION      0.00   355.06     0  02:39           0        2.73       0.625
  WS02004405           JUNCTION      0.04   359.43     0  02:35     0.00107        2.79       0.489
  WS02006109           JUNCTION      1.23   365.92     0  02:30      0.0347        2.86       0.398
  WS02006110           JUNCTION      0.00   364.40     0  02:30           0        2.85       0.355
  WS02006111           JUNCTION      0.00   368.68     0  02:29           0        2.84       0.037
  WS02006112           JUNCTION     10.35   368.48     0  02:29      0.0269        2.87       0.562
  WS02006113           JUNCTION      0.00   363.12     0  02:29           0        2.84       0.083
  WS02006115           JUNCTION      0.00   364.94     0  02:29           0        2.85       0.311
  WS02006116           JUNCTION      0.00   361.97     0  02:31           0        2.84       0.323
  WS02006230           JUNCTION     10.28   182.09     0  02:38        0.29        1.94       0.347
  WS02006231           JUNCTION      0.00   170.50     0  02:47           0        1.65      -0.193
  WS02006232           JUNCTION      0.00   171.23     0  02:47           0        1.65       0.264
  WS02006234           JUNCTION      0.00   172.07     0  02:46           0        1.64      -0.279
  WS02006235           JUNCTION      0.00   202.90     0  02:21           0        1.83       0.280
  WS02006238           JUNCTION      0.00   132.64     0  02:20           0       0.462      -0.143
  WS02006240           JUNCTION      0.00    56.91     0  02:22           0       0.296       0.532
  WS02006242           JUNCTION      0.00    45.05     0  02:20           0       0.217       0.493
  WS02006243           JUNCTION      0.00    45.10     0  02:19           0       0.164      -0.239
  WS02006245           JUNCTION      0.00    45.12     0  02:19           0       0.154       0.768
  WS02006247           JUNCTION      0.00    45.17     0  02:18           0       0.154       0.075
  WS02006248           JUNCTION      0.00    45.19     0  02:18           0       0.154      -0.013
  WS02006249           JUNCTION      0.00    45.23     0  02:17           0       0.154       0.283
  WS02006239           JUNCTION      0.00    77.60     0  02:21           0        0.38      -0.157
  WS02006251           JUNCTION      0.08    45.33     0  02:16     0.00217       0.154       0.047
  WS02006252           JUNCTION      0.00     0.00     0  00:00           0           0       0.000 ltr
  WS02006253           JUNCTION      1.60    45.29     0  02:16     0.00349       0.152       0.095
  WS02006256           JUNCTION      0.00   600.00     0  02:46           0        3.25       0.299
  WS02004138           JUNCTION      0.00   285.00     0  02:05           0        6.84       0.057
  WS02004407           JUNCTION      0.00   359.05     0  02:35           0        2.76       0.081
  WS02006228           JUNCTION      0.00   379.52     0  02:30           0        2.84       0.244
  WS02006229           JUNCTION      0.00   364.14     0  02:28           0        2.85       0.363
  WS02006280           JUNCTION      0.00   230.92     0  02:17           0       0.922       0.007
  WS02006284           JUNCTION      0.10   230.89     0  02:17      0.0027       0.923       0.114
  WS02006287           JUNCTION      0.00   230.76     0  02:17           0       0.921       0.079
  WSF200               JUNCTION      0.00   354.84     0  02:39           0         2.7       0.057
  HS02004901           JUNCTION     12.85    12.85     0  02:09      0.0324      0.0326       5.704
  HS02004881           JUNCTION      5.17    44.08     0  02:16      0.0141       0.149       0.041
  HS02004876           JUNCTION      8.14    39.26     0  02:16      0.0271       0.135       0.391
  HS02004870           JUNCTION      9.08    31.31     0  02:16      0.0268       0.108       0.098
  HS02004862           JUNCTION      7.35    22.88     0  02:17      0.0324      0.0818       0.206
  HS02004856           JUNCTION      6.72    15.60     0  02:16      0.0201      0.0509       2.913
  HS02004852           JUNCTION      0.00     9.33     0  02:16           0      0.0308       0.164
  HS02004848           JUNCTION     14.58    14.58     0  02:19      0.0638      0.0638       0.068
  HS02004842           JUNCTION      0.00     5.80     0  02:28           0       0.046      39.378
  HS02004837           JUNCTION     20.83    25.68     0  02:15       0.226       0.259       0.305
  HS02004830           JUNCTION      0.15    25.81     0  02:16     0.00423       0.249       0.497
  HS02004824           JUNCTION     16.28    41.90     0  02:19      0.0836       0.331       0.163
  HS02004817           JUNCTION      0.60    42.49     0  02:19      0.0169       0.348       5.033
  HS02004807           JUNCTION     17.11    57.99     0  02:18      0.0492        0.38       1.123
  HS02004802           JUNCTION      0.00    58.34     0  02:19           0       0.376       1.092
  HS02004799           JUNCTION     13.13   147.42     0  02:14      0.0398       0.481       0.473
  HS02004792           JUNCTION     58.89   134.62     0  02:14       0.174       0.441       0.093
  HS02004788           JUNCTION     19.45    78.36     0  02:15       0.102       0.269       0.143
  HS02004785           JUNCTION      0.15    59.36     0  02:14     0.00423       0.168       0.288
  HS02004777           JUNCTION      0.03    59.86     0  02:13    0.000846       0.168       3.169
  HS02004770           JUNCTION     49.95    61.25     0  02:11       0.139       0.169       1.862
  HS02004480           JUNCTION      0.00   173.72     0  02:16           0       0.561       0.131
  HS02004479           JUNCTION      0.00    26.95     0  02:17           0      0.0929       0.791
  HS02004478           JUNCTION      0.00   230.76     0  02:17           0       0.922       0.068
  YS02001745           JUNCTION     79.27   161.79     0  03:38        0.86       0.877       1.305
  YS02001748           JUNCTION      0.04   225.99     0  03:37     0.00127       0.885       2.709
  YS02001751           JUNCTION      0.01   256.75     0  03:38     0.00031       0.845       2.791
  YS02001754           JUNCTION      0.26   137.29     0  03:30     0.00733       0.812       3.018
  YS02001762           JUNCTION      0.00   116.77     0  02:36           0       0.928       2.337
  YS02001765           JUNCTION      0.00   121.50     0  02:36           0       0.931       2.736
  YS02001767           JUNCTION      0.54   119.92     0  02:43      0.0151       0.952       3.931
  YS02001770           JUNCTION    102.41   116.45     0  02:44           1        1.02       3.260
  YS02001774           JUNCTION      0.00    49.81     0  02:15           0       0.065      63.990
  YS02001779           JUNCTION      0.01    42.10     0  03:23    0.000141      0.0269     132.243
  YS02001882           JUNCTION      0.00     4.64     0  02:07           0     0.00555      43.825
  YS02001884           JUNCTION      0.00    13.23     0  02:07           0      0.0219      28.815
  YS02001759           JUNCTION    100.37   208.30     0  02:50       0.936        1.83       1.291
  YS02001887           JUNCTION    132.91   132.91     0  02:39        1.12        1.13       0.642
  YS02001890           JUNCTION      0.00   132.88     0  02:38           0         1.1       0.720
  YS02001898           JUNCTION      0.00   131.89     0  02:42           0        1.09       0.203
  YS02001901           JUNCTION      0.00   132.03     0  02:47           0        1.09       0.512
  YS02001904           JUNCTION      0.00   131.68     0  02:47           0        1.09       0.476
  YS02001907           JUNCTION      0.00   238.04     0  02:57           0        2.34       0.956
  YS02001910           JUNCTION      0.00   107.92     0  02:57           0        1.26       0.818
  YS02001915           JUNCTION     71.16   106.85     0  02:59       0.735        1.26       0.365
  YS02001918           JUNCTION      0.00    36.38     0  03:02           0       0.526       0.218
  YS02001619           JUNCTION     69.14    69.14     0  02:53       0.725       0.725       1.720
  YS02001629           JUNCTION      0.00   147.97     0  03:43           0       0.656       4.647
  YS02001641           JUNCTION      0.00   148.56     0  02:46           0        1.39       1.556
  YS02001644           JUNCTION     75.28   307.40     0  05:20       0.825           3       0.885
  YS02001652           JUNCTION      0.00   136.53     0  03:34           0        0.75       3.213
  YS02001655           JUNCTION      0.15   282.88     0  03:32     0.00434       0.784       3.180
  YS02001920           JUNCTION      2.87    36.39     0  03:01      0.0809       0.528       0.393
  YS02001923           JUNCTION      0.04    33.53     0  03:01     0.00106       0.448       0.069
  YS02001926           JUNCTION      0.05    33.54     0  03:01     0.00147       0.449       0.491
  YS02001929           JUNCTION     33.50    33.50     0  03:01       0.448       0.448       0.067
  YS02001658           JUNCTION      0.00   317.14     0  03:34           0       0.844       2.832
  YS02001661           JUNCTION      0.00   239.81     0  03:35           0       0.872       2.552
  YS02001664           JUNCTION     94.01    94.59     0  04:50       0.817       0.834       0.635
  YS02001622           JUNCTION      0.00   102.27     0  03:42           0       0.724       4.616
  YS02001633           JUNCTION     76.52   156.60     0  02:57        0.85        1.45       2.270
  YS02001649           JUNCTION      0.00   317.05     0  02:53           0        2.88       1.319
  YS02001757           JUNCTION      0.00   574.68     0  02:52           0        4.68       2.013
  YS02001895           JUNCTION      0.00   131.91     0  02:43           0        1.09       0.347
  YS02001625           JUNCTION      0.00   148.21     0  03:43           0       0.703       5.878
  YS02163301           JUNCTION      0.00    84.69     0  02:46           0       0.627       3.942
  YS02163601           JUNCTION      0.11   152.58     0  02:58      0.0031        1.41       2.184
  YS02164001           JUNCTION      0.00   148.74     0  02:46           0        1.39       1.488
  YS02001647           JUNCTION      0.00   231.92     0  02:57           0        2.34       1.233
  YSB1154              JUNCTION     14.47    14.47     0  02:13      0.0483      0.0497       2.994
  YSB6556              JUNCTION      0.00    14.37     0  02:15           0      0.0507       2.519
  YSB1174              JUNCTION     14.66    14.66     0  02:08      0.0352      0.0362       3.674
  YSB1171              JUNCTION      0.00    26.92     0  02:15           0      0.0924       7.339
  YS02006553           JUNCTION      0.00   237.81     0  02:56           0        2.32       0.620
  YS02006561           JUNCTION      0.00   355.27     0  02:46           0        3.29       0.019
  YS02006556           JUNCTION      0.00   237.95     0  02:56           0        2.33       0.447
  YS02006558           JUNCTION    112.08   348.82     0  02:47        1.02        3.32       0.138
  YS02001783           JUNCTION      0.00   348.79     0  02:47           0        3.29       0.048
  YS02001784           JUNCTION      1.06   349.73     0  02:47      0.0299        3.32       0.078
  YS02001786           JUNCTION      0.06   349.61     0  02:48     0.00159        3.31       0.075
  YS02001788           JUNCTION      0.07   349.65     0  02:48       0.002        3.31       0.044
  YS02001790           JUNCTION      0.15   349.84     0  02:48     0.00437        3.32       0.054
  YS02001791           JUNCTION      0.00   349.76     0  02:48           0        3.31       0.028
  YS02001793           JUNCTION      0.00  1002.49     0  02:39           0        3.65       0.209
  WS02004139           JUNCTION      0.32   286.07     0  06:27     0.00905        6.85       0.527
  WSC                  OUTFALL       0.00   663.11     0  02:43           0          10       0.000
  3                    OUTFALL       0.00   563.15     0  03:07           0        1.73       0.000
  4                    OUTFALL       0.00     0.00     0  00:00           0           0       0.000 ltr
  5                    OUTFALL       0.00     0.00     0  00:00           0           0       0.000 ltr
  JK-storage           STORAGE       0.00  1198.54     0  02:39           0         3.8       0.195
  CC-storage           STORAGE       0.00   574.98     0  02:52           0        3.92       1.684
  XR-storage           STORAGE     329.03   329.03     0  02:48        7.08        7.68      -0.000
  
  
  **********************
  Node Surcharge Summary
  **********************
  
  Surcharging occurs when water rises above the top of the highest conduit.
  ---------------------------------------------------------------------
                                               Max. Height   Min. Depth
                                   Hours       Above Crown    Below Rim
  Node                 Type      Surcharged         Meters       Meters
  ---------------------------------------------------------------------
  WS02006256           JUNCTION        0.01          0.322        0.728
  YS02001748           JUNCTION        3.35          0.206        0.984
  YS02001751           JUNCTION        4.04          0.684        0.516
  YS02001754           JUNCTION        4.48          0.714        0.436
  YS02001762           JUNCTION        5.21          0.966        0.184
  YS02001765           JUNCTION        5.13          0.916        0.184
  YS02001767           JUNCTION        5.04          0.875        0.155
  YS02001770           JUNCTION        4.90          0.840        0.080
  YS02001774           JUNCTION        5.18          0.944        0.106
  YS02001779           JUNCTION        4.41          0.680        0.000
  YS02001759           JUNCTION        5.26          1.001        0.209
  YS02001619           JUNCTION        3.94          0.454        0.156
  YS02001629           JUNCTION        3.97          0.443        0.027
  YS02001641           JUNCTION        5.16          0.920        0.180
  YS02001644           JUNCTION        5.17          0.920        0.000
  YS02001652           JUNCTION        4.59          0.735        0.395
  YS02001655           JUNCTION        4.13          0.595        0.605
  YS02001658           JUNCTION        3.37          0.221        1.079
  YS02001622           JUNCTION        3.99          0.476        0.144
  YS02001633           JUNCTION        5.10          0.895        0.165
  YS02001649           JUNCTION        5.23          0.970        0.080
  YS02001757           JUNCTION        5.38          1.102        0.108
  YS02001625           JUNCTION        4.66          0.772        0.008
  YS02163301           JUNCTION        4.97          0.855        0.175
  YS02163601           JUNCTION        5.22          0.966        0.114
  YS02164001           JUNCTION        5.13          0.902        0.198
  YS02001647           JUNCTION        4.64          0.746        0.154
  YS02001793           JUNCTION        0.01          1.989        0.611
  
  
  *********************
  Node Flooding Summary
  *********************
  
  Flooding refers to all water that overflows a node, whether it ponds or not.
  --------------------------------------------------------------------------
                                                             Total   Maximum
                                 Maximum   Time of Max       Flood    Ponded
                        Hours       Rate    Occurrence      Volume     Depth
  Node                 Flooded       LPS   days hr:min    10^6 ltr    Meters
  --------------------------------------------------------------------------
  YS02001779              0.01      1.10      0  05:12       0.000     0.000
  YS02001644              2.74    307.39      0  05:20       1.432     0.000
  XR-storage              1.02     43.46      0  02:55       0.075     0.000
  
  
  **********************
  Storage Volume Summary
  **********************
  
  --------------------------------------------------------------------------------------------------
                         Average     Avg  Evap Exfil       Maximum     Max    Time of Max    Maximum
                          Volume    Pcnt  Pcnt  Pcnt        Volume    Pcnt     Occurrence    Outflow
  Storage Unit           1000 m3    Full  Loss  Loss       1000 m3    Full    days hr:min        LPS
  --------------------------------------------------------------------------------------------------
  JK-storage               0.205      70     0     0         0.245      84       0  02:46     968.74
  CC-storage               2.202      14     0     0         3.818      24       0  05:15      99.75
  XR-storage               0.867      94     0     0         0.926     100       0  02:55     285.00
  
  
  ***********************
  Outfall Loading Summary
  ***********************
  
  -----------------------------------------------------------
                         Flow       Avg       Max       Total
                         Freq      Flow      Flow      Volume
  Outfall Node           Pcnt       LPS       LPS    10^6 ltr
  -----------------------------------------------------------
  WSC                   99.99    442.54    663.11      10.031
  3                     76.76    168.37    563.15       1.727
  4                      0.00      0.00      0.00       0.000
  5                      0.00      0.00      0.00       0.000
  -----------------------------------------------------------
  System                44.19    610.91   1220.75      11.757
  
  
  ********************
  Link Flow Summary
  ********************
  
  -----------------------------------------------------------------------------
                                 Maximum  Time of Max   Maximum    Max/    Max/
                                  |Flow|   Occurrence   |Veloc|    Full    Full
  Link                 Type          LPS  days hr:min     m/sec    Flow   Depth
  -----------------------------------------------------------------------------
  WS02003066WSF200     CONDUIT    354.84     0  02:39      2.55    0.06    0.18
  WS02006287WS02006284 CONDUIT    230.80     0  02:17      1.68    0.11    0.23
  WS02006284WS02006280 CONDUIT    230.92     0  02:17      1.93    0.10    0.21
  WS02006280WS02006229 CONDUIT    230.92     0  02:17      3.10    0.05    0.15
  WS02006229WS02006228 CONDUIT    379.52     0  02:30      0.77    1.26    0.95
  WS02006256WS02006235 CONDUIT    166.35     0  05:43      2.55    1.76    1.00
  WS02006253WS02006251 CONDUIT     45.26     0  02:16      0.51    0.14    0.28
  WS02006252WS02006251 CONDUIT      0.00     0  00:00      0.00    0.00    0.00
  WS02006251WS02006249 CONDUIT     45.23     0  02:17      0.56    0.13    0.26
  WS02006249WS02006248 CONDUIT     45.19     0  02:18      0.67    0.25    0.23
  WS02006248WS02006247 CONDUIT     45.17     0  02:18      0.64    0.10    0.24
  WS02006247WS02006245 CONDUIT     45.12     0  02:19      0.59    0.36    0.25
  WS02006245WS02006243 CONDUIT     45.10     0  02:19      0.72    0.13    0.24
  WS02006243WS02006242 CONDUIT     45.05     0  02:20      0.59    0.10    0.36
  WS02006242WS02006240 CONDUIT     47.50     0  02:24      0.50    0.19    0.46
  WS02006240WS02006239 CONDUIT     51.08     0  03:55      0.70    0.16    0.47
  WS02006239WS02006238 CONDUIT     80.01     0  03:54      0.66    0.26    0.59
  WS02006238WS02006235 CONDUIT    117.31     0  05:02      1.03    0.26    0.64
  WS02006235WS02006234 CONDUIT    172.07     0  02:46      0.92    1.82    0.59
  WS02006234WS02006232 CONDUIT    171.23     0  02:47      0.79    0.35    0.67
  WS02006232WS02006231 CONDUIT    170.50     0  02:47      0.68    0.36    0.65
  WS02006231WS02006230 CONDUIT    171.81     0  02:38      1.01    2.61    0.54
  WS02006230WS02006229 CONDUIT    186.35     0  02:37      0.52    4.15    1.00
  WS02006228WS02006109 CONDUIT    364.69     0  02:30      0.73    1.59    0.98
  WS02006116WS02004401 CONDUIT    359.99     0  02:32      0.62    0.50    0.70
  WS02006115WS02006116 CONDUIT    361.97     0  02:31      0.75    0.46    0.61
  WS02006113WS02006111 CONDUIT    368.68     0  02:29      2.14    0.44    0.37
  WS02006112WS02006115 CONDUIT    364.94     0  02:29      0.60    0.22    0.74
  WS02006111WS02006112 CONDUIT    362.61     0  02:29      1.07    0.17    0.64
  WS02006110WS02006113 CONDUIT    363.12     0  02:29      0.94    0.33    0.72
  WS02006109WS02006110 CONDUIT    364.40     0  02:30      0.76    0.70    0.91
  WS02004411WS02004412 CONDUIT    355.62     0  02:37      0.93    0.51    0.58
  WS02004401WS02004402 CONDUIT    359.77     0  02:34      0.59    0.43    0.73
  WS02004413WS02003067 CONDUIT    354.85     0  02:39      0.89    0.15    0.51
  WS02004412WS02004413 CONDUIT    355.06     0  02:39      0.84    0.24    0.67
  WS02004410WS02004411 CONDUIT    356.40     0  02:36      0.81    0.49    0.56
  WS02004409WS02004410 CONDUIT    357.66     0  02:36      0.84    0.46    0.54
  WS02004407WS02004409 CONDUIT    358.93     0  02:35      1.32    0.13    0.38
  WS02004406WS02004407 CONDUIT    359.05     0  02:35      0.82    0.16    0.55
  WS02004405WS02004406 CONDUIT    359.27     0  02:35      0.51    0.71    0.84
  WS02004404WS02004405 CONDUIT    359.39     0  02:35      0.51    3.52    0.84
  WS02004403WS02004404 CONDUIT    359.28     0  02:35      0.53    0.26    0.80
  WS02004402WS02004403 CONDUIT    359.38     0  02:34      0.57    0.52    0.75
  WS02004139WS02001211 CONDUIT    287.19     0  06:28      0.54    0.36    0.52
  WS02004138WS02004139 CONDUIT    285.75     0  06:27      2.39    0.06    0.38
  WS02003067WS02003066 CONDUIT    354.85     0  02:39      0.95    0.11    0.36
  WS02001213WS02003059 CONDUIT    294.41     0  02:53      0.59    0.49    0.68
  WS02001212WS02001213 CONDUIT    293.70     0  02:53      1.19    0.45    0.38
  WS02001211WS02001212 CONDUIT    293.35     0  02:54      0.67    0.22    0.56
  WS02003072WS02003073 CONDUIT    661.32     0  02:42      1.53    1.43    0.41
  WS02003069WS02003072 CONDUIT    661.31     0  02:42      1.45    0.32    0.42
  WS02003060WS02003069 CONDUIT    661.00     0  02:41      1.71    0.26    0.37
  WS02003059WS02003060 CONDUIT    295.65     0  04:05      0.82    0.19    0.57
  HS02004901HS02004770 CONDUIT     11.74     0  02:14      0.05    0.04    0.33
  HS02004876HS02004881 CONDUIT     39.37     0  02:16      0.61    0.42    0.09
  HS02004870HS02004876 CONDUIT     31.29     0  02:17      0.43    0.02    0.10
  HS02004842HS02004848 CONDUIT      5.80     0  02:28      0.03    0.00    0.28
  HS02004837HS02004842 CONDUIT      6.02     0  02:29      0.42    0.00    0.29
  HS02004830HS02004837 CONDUIT     25.66     0  02:16      0.46    0.03    0.08
  HS02004824HS02004830 CONDUIT     25.81     0  02:17      0.50    0.03    0.07
  HS02004817HS02004824 CONDUIT     41.89     0  02:19      0.17    0.02    0.41
  HS02004770HS02004777 CONDUIT     59.83     0  02:13      0.25    0.11    0.35
  HS02004799HS02004480 CONDUIT    147.17     0  02:15      0.63    0.19    0.33
  HS02004792HS02004799 CONDUIT    134.54     0  02:14      0.73    0.08    0.27
  HS02004788HS02004792 CONDUIT     78.28     0  02:15      0.87    0.05    0.13
  HS02004785HS02004788 CONDUIT     59.27     0  02:15      0.55    0.45    0.16
  HS02004777HS02004785 CONDUIT     59.21     0  02:14      0.30    0.07    0.28
  HS02004480HS02004478 CONDUIT    173.66     0  02:16      1.01    0.73    0.25
  HS02004479HS02004480 CONDUIT     27.20     0  02:17      0.15    0.03    0.32
  HS02004862HS02004870 CONDUIT     22.84     0  02:17      0.49    0.02    0.07
  HS02004848HS02004852 CONDUIT      9.33     0  02:16      0.33    0.01    0.04
  HS02004856HS02004862 CONDUIT     15.56     0  02:17      0.36    0.02    0.06
  HS02004852HS02004856 CONDUIT      9.28     0  02:18      0.14    0.01    0.10
  HS02004802HS02004478 CONDUIT     58.82     0  02:20      0.32    0.05    0.27
  HS02004478WS02006287 CONDUIT    230.76     0  02:17      1.38    0.06    0.19
  HS02004817HS02004807 CONDUIT     43.15     0  02:21      0.12    0.03    0.53
  HS02004807HS02004802 CONDUIT     58.34     0  02:19      0.27    0.11    0.32
  YS02001759YS02001757 CONDUIT    210.34     0  02:36      0.27    0.15    1.00
  YS02001762YS02001759 CONDUIT    108.32     0  02:50      0.17    0.12    1.00
  YS02001765YS02001762 CONDUIT    116.77     0  02:36      0.23    0.11    1.00
  YS02001770YS02001767 CONDUIT    119.38     0  02:43      0.35    0.47    1.00
  YS02001774YS02001770 CONDUIT     49.81     0  02:15      0.14    0.03    1.00
  YS02001779YS02001774 CONDUIT     42.09     0  03:23      0.09    0.02    1.00
  YS02001649YS02001757 CONDUIT    317.57     0  02:53      0.40    0.19    1.00
  YS02001767YS02001765 CONDUIT    121.50     0  02:36      0.26    0.15    1.00
  YS02006561YS02001783 CONDUIT    348.79     0  02:47      1.84    0.18    0.40
  YS02001783YS02001784 CONDUIT    348.67     0  02:47      1.28    0.48    0.53
  YS02001784YS02001785 CONDUIT    349.55     0  02:48      1.36    0.81    0.51
  YS02001788YS02001790 CONDUIT    349.68     0  02:48      1.93    0.26    0.39
  YS02001790YS02001791 CONDUIT    349.76     0  02:48      2.28    0.38    0.43
  YS02001791YS02001793 CONDUIT    607.40     0  02:41      4.36    0.26    0.68
  YS02001910YS02001907 CONDUIT    108.57     0  02:57      0.49    0.06    0.76
  YS02001786YS02001788 CONDUIT    349.58     0  02:48      1.80    0.67    0.41
  YS02001915YS02001910 CONDUIT    107.92     0  02:57      0.44    0.05    0.55
  YS02001918YS02001915 CONDUIT     36.36     0  03:03      0.44    0.02    0.27
  YS02001923YS02001920 CONDUIT     33.52     0  03:01      0.47    0.02    0.15
  YS02001926YS02001923 CONDUIT     33.49     0  03:01      0.51    0.05    0.14
  YS02001929YS02001926 CONDUIT     33.49     0  03:01      0.54    0.02    0.13
  YS02001920YS02001918 CONDUIT     36.38     0  03:02      0.48    0.04    0.15
  YS02001629YS02163301 CONDUIT     84.69     0  02:46      0.12    0.10    1.00
  YS02001619YS02001622 CONDUIT    102.27     0  03:42      0.69    0.15    1.00
  YS02001622YS02001625 CONDUIT    148.21     0  03:43      0.27    0.08    1.00
  YS02001625YS02001629 CONDUIT    147.97     0  03:43      0.27    0.07    1.00
  YS02163301YS02001633 CONDUIT     80.09     0  02:57      0.11    0.08    1.00
  YS02163601YS02164001 CONDUIT    148.74     0  02:46      0.19    0.13    1.00
  YS02164001YS02001641 CONDUIT    148.56     0  02:46      0.19    0.20    1.00
  YS02001641YS02001644 CONDUIT    152.65     0  02:58      0.19    0.49    1.00
  YS02001647YS02001649 CONDUIT    248.77     0  02:56      0.32    0.13    1.00
  YS02006553YS02006556 CONDUIT    237.95     0  02:56      0.34    0.20    0.84
  YS02006556YS02006558 CONDUIT    238.31     0  02:56      0.33    0.19    0.87
  YSB6556YSB1171       CONDUIT     14.69     0  02:18      0.06    0.02    0.59
  YS02001907YS02006553 CONDUIT    237.81     0  02:56      0.28    0.28    0.96
  YS02006558YS02006561 CONDUIT    355.27     0  02:46      2.41    0.79    0.52
  YS02001633YS02163601 CONDUIT    152.47     0  02:58      0.19    0.16    1.00
  YS02001644YS02001647 CONDUIT    231.92     0  02:57      0.30    0.14    1.00
  YS02001745YS02001748 CONDUIT    193.32     0  03:39      1.43    0.07    0.92
  YS02001748YS02001751 CONDUIT    256.74     0  03:38      1.12    0.13    1.00
  YS02001751YS02001754 CONDUIT    137.03     0  03:30      1.00    0.07    1.00
  YS02001754YS02001757 CONDUIT    139.16     0  03:30      0.33    0.06    1.00
  YS02001882YS02001884 CONDUIT      4.64     0  02:07      0.06    0.01    0.49
  YS02001884YS02001887 CONDUIT     13.23     0  02:07      0.07    0.02    0.58
  YS02001890YS02001895 CONDUIT    131.91     0  02:43      0.30    0.06    0.55
  YS02001895YS02001898 CONDUIT    131.89     0  02:42      0.51    0.23    0.41
  YS02001898YS02001901 CONDUIT    132.03     0  02:47      0.35    0.09    0.49
  YS02001901YS02001904 CONDUIT    131.68     0  02:47      0.30    0.20    0.54
  YS02001904YS02001907 CONDUIT    132.09     0  02:47      0.22    0.05    0.70
  YS02001887YS02001890 CONDUIT    132.88     0  02:38      0.26    0.23    0.64
  YS02001652YS02001649 CONDUIT    136.63     0  03:34      0.35    0.07    1.00
  YS02001655YS02001652 CONDUIT    136.53     0  03:34      1.08    0.07    1.00
  YS02001658YS02001655 CONDUIT    268.73     0  03:32      1.29    0.11    1.00
  YS02001661YS02001658 CONDUIT    272.98     0  03:36      1.49    0.11    0.95
  YS02001664YS02001661 CONDUIT    123.27     0  04:51      1.16    0.04    0.70
  YSB1154YSB6556       CONDUIT     14.37     0  02:15      0.19    0.03    0.48
  YSB1174YSB1171       CONDUIT     13.47     0  02:11      0.06    0.02    0.60
  YSB1171HS02004479    CONDUIT     26.95     0  02:17      0.54    0.02    0.46
  HS02004881HS02006253 CONDUIT     44.08     0  02:16      1.75    0.01    0.04
  YS02001793JiankangQianchi CONDUIT   1198.54     0  02:39      1.93    0.10    1.00
  YS02001757CaochengTiaoxuchi CONDUIT    574.98     0  02:52      1.10    0.25    1.00
  WSF200WS02003060     CONDUIT    354.91     0  02:39      1.42    0.08    0.27
  1                    CONDUIT    663.11     0  02:43      2.97    0.23    0.33
  2                    CONDUIT      0.00     0  00:00      0.00    0.00    0.00
  3                    CONDUIT    563.15     0  03:07     10.11    0.90    0.84
  4                    CONDUIT      0.00     0  00:00      0.00    0.00    0.00
  CC-Pump-1            PUMP         0.00     0  00:00              0.00
  CC-Pump-2            PUMP         0.00     0  00:00              0.00
  JK-Pump-1            PUMP       300.00     0  02:20              1.00
  JK-Pump-2            PUMP       300.00     0  02:46              1.00
  XR-Pump-1            PUMP        95.00     0  00:00              1.00
  XR-Pump-2            PUMP        95.00     0  00:25              1.00
  XR-Pump-3            PUMP        95.00     0  02:05              1.00
  XR-Pump-4            PUMP         0.00     0  00:00              0.00
  
  
  ***************************
  Flow Classification Summary
  ***************************
  
  -------------------------------------------------------------------------------------
                      Adjusted    ---------- Fraction of Time in Flow Class ---------- 
                       /Actual         Up    Down  Sub   Sup   Up    Down  Norm  Inlet 
  Conduit               Length    Dry  Dry   Dry   Crit  Crit  Crit  Crit  Ltd   Ctrl  
  -------------------------------------------------------------------------------------
  WS02003066WSF200        1.00   0.11  0.00  0.00  0.00  0.89  0.00  0.00  0.69  0.00
  WS02006287WS02006284    1.00   0.03  0.03  0.00  0.56  0.38  0.00  0.00  0.77  0.00
  WS02006284WS02006280    1.00   0.04  0.00  0.00  0.00  0.00  0.00  0.96  0.00  0.00
  WS02006280WS02006229    1.00   0.04  0.00  0.00  0.00  0.00  0.00  0.96  0.00  0.00
  WS02006229WS02006228    1.00   0.00  0.00  0.00  1.00  0.00  0.00  0.00  0.00  0.00
  WS02006256WS02006235    1.00   0.07  0.00  0.00  0.89  0.04  0.00  0.00  0.04  0.00
  WS02006253WS02006251    1.00   0.01  0.02  0.00  0.96  0.00  0.00  0.00  0.00  0.00
  WS02006252WS02006251    1.00   1.00  0.00  0.00  0.00  0.00  0.00  0.00  0.00  0.00
  WS02006251WS02006249    1.00   0.00  0.00  0.00  1.00  0.00  0.00  0.00  0.94  0.00
  WS02006249WS02006248    1.00   0.00  0.01  0.00  0.05  0.00  0.95  0.00  0.00  0.00
  WS02006248WS02006247    1.00   0.01  0.00  0.00  0.98  0.00  0.00  0.02  0.87  0.00
  WS02006247WS02006245    1.00   0.01  0.00  0.00  0.96  0.00  0.00  0.03  0.00  0.00
  WS02006245WS02006243    1.00   0.01  0.00  0.00  0.90  0.00  0.00  0.09  0.08  0.00
  WS02006243WS02006242    1.00   0.01  0.00  0.00  0.95  0.00  0.00  0.04  0.44  0.00
  WS02006242WS02006240    1.00   0.02  0.04  0.00  0.94  0.00  0.01  0.00  0.01  0.00
  WS02006240WS02006239    1.00   0.06  0.00  0.00  0.88  0.00  0.00  0.07  0.08  0.00
  WS02006239WS02006238    1.00   0.06  0.00  0.00  0.93  0.00  0.00  0.01  0.00  0.00
  WS02006238WS02006235    1.00   0.06  0.01  0.00  0.93  0.00  0.00  0.00  0.00  0.00
  WS02006235WS02006234    1.00   0.07  0.00  0.00  0.87  0.00  0.05  0.00  0.00  0.00
  WS02006234WS02006232    1.00   0.08  0.00  0.00  0.92  0.00  0.00  0.00  0.01  0.00
  WS02006232WS02006231    1.00   0.08  0.01  0.00  0.90  0.00  0.01  0.00  0.00  0.00
  WS02006231WS02006230    1.00   0.09  0.00  0.00  0.18  0.00  0.73  0.00  0.00  0.00
  WS02006230WS02006229    1.00   0.00  0.00  0.00  0.99  0.00  0.00  0.01  0.02  0.00
  WS02006228WS02006109    1.00   0.00  0.00  0.00  1.00  0.00  0.00  0.00  0.00  0.00
  WS02006116WS02004401    1.00   0.03  0.00  0.00  0.97  0.00  0.00  0.00  0.01  0.00
  WS02006115WS02006116    1.00   0.03  0.00  0.00  0.93  0.00  0.00  0.03  0.00  0.00
  WS02006113WS02006111    1.00   0.02  0.00  0.00  0.01  0.97  0.00  0.00  0.12  0.00
  WS02006112WS02006115    1.00   0.02  0.01  0.00  0.96  0.00  0.00  0.00  0.00  0.00
  WS02006111WS02006112    1.00   0.02  0.00  0.00  0.97  0.00  0.00  0.00  0.92  0.00
  WS02006110WS02006113    1.00   0.00  0.02  0.00  0.98  0.00  0.00  0.00  0.00  0.00
  WS02006109WS02006110    1.00   0.00  0.00  0.00  0.99  0.00  0.00  0.00  0.00  0.00
  WS02004411WS02004412    1.00   0.09  0.00  0.00  0.91  0.00  0.00  0.00  0.00  0.00
  WS02004401WS02004402    1.00   0.03  0.00  0.00  0.97  0.00  0.00  0.00  0.04  0.00
  WS02004413WS02003067    1.00   0.09  0.01  0.00  0.00  0.00  0.89  0.00  0.00  0.00
  WS02004412WS02004413    1.00   0.09  0.00  0.00  0.91  0.00  0.00  0.00  0.00  0.00
  WS02004410WS02004411    1.00   0.09  0.00  0.00  0.91  0.00  0.00  0.00  0.00  0.00
  WS02004409WS02004410    1.00   0.09  0.00  0.00  0.91  0.00  0.00  0.00  0.00  0.00
  WS02004407WS02004409    1.00   0.09  0.00  0.00  0.90  0.01  0.00  0.00  0.72  0.00
  WS02004406WS02004407    1.00   0.00  0.09  0.00  0.91  0.00  0.00  0.00  0.00  0.00
  WS02004405WS02004406    1.00   0.00  0.00  0.00  1.00  0.00  0.00  0.00  0.04  0.00
  WS02004404WS02004405    1.00   0.00  0.00  0.00  1.00  0.00  0.00  0.00  0.02  0.00
  WS02004403WS02004404    1.00   0.00  0.04  0.00  0.96  0.00  0.00  0.00  0.04  0.00
  WS02004402WS02004403    1.00   0.03  0.00  0.00  0.97  0.00  0.00  0.00  0.00  0.00
  WS02004139WS02001211    1.00   0.00  0.00  0.00  1.00  0.00  0.00  0.00  0.00  0.00
  WS02004138WS02004139    1.00   0.00  0.00  0.00  1.00  0.00  0.00  0.00  1.00  0.00
  WS02003067WS02003066    1.00   0.11  0.00  0.00  0.89  0.00  0.00  0.00  0.00  0.00
  WS02001213WS02003059    1.00   0.00  0.00  0.00  1.00  0.00  0.00  0.00  0.00  0.00
  WS02001212WS02001213    1.00   0.00  0.00  0.00  0.41  0.00  0.59  0.00  0.00  0.00
  WS02001211WS02001212    1.00   0.00  0.00  0.00  1.00  0.00  0.00  0.00  0.00  0.00
  WS02003072WS02003073    1.00   0.00  0.00  0.00  0.00  0.00  0.00  1.00  0.00  0.00
  WS02003069WS02003072    1.00   0.00  0.00  0.00  1.00  0.00  0.00  0.00  0.51  0.00
  WS02003060WS02003069    1.00   0.00  0.00  0.00  0.99  0.01  0.00  0.00  0.29  0.00
  WS02003059WS02003060    1.00   0.00  0.00  0.00  1.00  0.00  0.00  0.00  0.02  0.00
  HS02004901HS02004770    1.00   0.04  0.00  0.00  0.96  0.00  0.00  0.00  0.03  0.00
  HS02004876HS02004881    1.00   0.01  0.00  0.00  0.99  0.00  0.00  0.00  0.00  0.00
  HS02004870HS02004876    1.00   0.00  0.00  0.00  1.00  0.00  0.00  0.00  0.95  0.00
  HS02004842HS02004848    1.00   0.00  0.04  0.00  0.96  0.00  0.00  0.00  0.69  0.00
  HS02004837HS02004842    1.00   0.00  0.00  0.00  1.00  0.00  0.00  0.00  0.11  0.00
  HS02004830HS02004837    1.00   0.00  0.00  0.00  1.00  0.00  0.00  0.00  0.99  0.00
  HS02004824HS02004830    1.00   0.00  0.00  0.00  1.00  0.00  0.00  0.00  0.00  0.00
  HS02004817HS02004824    1.00   0.00  0.00  0.00  1.00  0.00  0.00  0.00  1.00  0.00
  HS02004770HS02004777    1.00   0.00  0.04  0.00  0.96  0.00  0.00  0.00  0.07  0.00
  HS02004799HS02004480    1.00   0.00  0.01  0.00  0.94  0.00  0.05  0.00  0.00  0.00
  HS02004792HS02004799    1.00   0.00  0.00  0.00  1.00  0.00  0.00  0.00  0.98  0.00
  HS02004788HS02004792    1.00   0.00  0.00  0.00  1.00  0.00  0.00  0.00  0.98  0.00
  HS02004785HS02004788    1.00   0.00  0.00  0.00  1.00  0.00  0.00  0.00  0.00  0.00
  HS02004777HS02004785    1.00   0.00  0.00  0.00  1.00  0.00  0.00  0.00  0.21  0.00
  HS02004480HS02004478    1.00   0.05  0.00  0.00  0.63  0.00  0.00  0.33  0.00  0.00
  HS02004479HS02004480    1.00   0.01  0.00  0.00  0.99  0.00  0.00  0.00  0.16  0.00
  HS02004862HS02004870    1.00   0.00  0.00  0.00  1.00  0.00  0.00  0.00  0.05  0.00
  HS02004848HS02004852    1.00   0.04  0.00  0.00  0.96  0.00  0.00  0.00  0.71  0.00
  HS02004856HS02004862    1.00   0.00  0.08  0.00  0.92  0.00  0.00  0.00  0.74  0.00
  HS02004852HS02004856    1.00   0.04  0.01  0.00  0.95  0.00  0.00  0.00  0.83  0.00
  HS02004802HS02004478    1.00   0.04  0.01  0.00  0.95  0.00  0.00  0.00  0.01  0.00
  HS02004478WS02006287    1.00   0.06  0.00  0.00  0.83  0.11  0.00  0.00  0.76  0.00
  HS02004817HS02004807    1.00   0.00  0.04  0.00  0.96  0.00  0.00  0.00  0.00  0.00
  HS02004807HS02004802    1.00   0.04  0.00  0.00  0.95  0.00  0.00  0.00  0.01  0.00
  YS02001759YS02001757    1.00   0.00  0.00  0.00  1.00  0.00  0.00  0.00  0.17  0.00
  YS02001762YS02001759    1.00   0.00  0.00  0.00  1.00  0.00  0.00  0.00  0.04  0.00
  YS02001765YS02001762    1.00   0.00  0.00  0.00  1.00  0.00  0.00  0.00  0.22  0.00
  YS02001770YS02001767    1.00   0.00  0.00  0.00  1.00  0.00  0.00  0.00  0.00  0.00
  YS02001774YS02001770    1.00   0.00  0.05  0.00  0.94  0.00  0.00  0.00  0.06  0.00
  YS02001779YS02001774    1.00   0.00  0.00  0.00  1.00  0.00  0.00  0.00  0.26  0.00
  YS02001649YS02001757    1.00   0.00  0.00  0.00  1.00  0.00  0.00  0.00  0.19  0.00
  YS02001767YS02001765    1.00   0.00  0.00  0.00  1.00  0.00  0.00  0.00  0.01  0.00
  YS02006561YS02001783    1.00   0.08  0.00  0.00  0.00  0.92  0.00  0.00  0.73  0.00
  YS02001783YS02001784    1.00   0.00  0.08  0.00  0.92  0.00  0.00  0.00  0.00  0.00
  YS02001784YS02001785    1.00   0.00  0.00  0.00  1.00  0.00  0.00  0.00  0.25  0.00
  YS02001788YS02001790    1.00   0.00  0.00  0.00  0.09  0.91  0.00  0.00  0.76  0.00
  YS02001790YS02001791    1.00   0.00  0.00  0.00  0.00  1.00  0.00  0.00  0.56  0.00
  YS02001791YS02001793    1.00   0.00  0.00  0.00  0.31  0.69  0.00  0.00  0.32  0.00
  YS02001910YS02001907    1.00   0.00  0.00  0.00  0.99  0.00  0.00  0.01  0.13  0.00
  YS02001786YS02001788    1.00   0.00  0.00  0.00  0.09  0.91  0.00  0.00  0.00  0.00
  YS02001915YS02001910    1.00   0.00  0.00  0.00  1.00  0.00  0.00  0.00  0.24  0.00
  YS02001918YS02001915    1.00   0.00  0.00  0.00  0.99  0.00  0.00  0.00  0.81  0.00
  YS02001923YS02001920    1.00   0.00  0.00  0.00  1.00  0.00  0.00  0.00  1.00  0.00
  YS02001926YS02001923    1.00   0.00  0.02  0.00  0.00  0.00  0.98  0.00  0.00  0.00
  YS02001929YS02001926    1.00   0.00  0.04  0.00  0.96  0.00  0.00  0.00  0.87  0.00
  YS02001920YS02001918    1.00   0.00  0.00  0.00  1.00  0.00  0.00  0.00  0.00  0.00
  YS02001629YS02163301    1.00   0.07  0.01  0.00  0.93  0.00  0.00  0.00  0.00  0.00
  YS02001619YS02001622    1.00   0.04  0.00  0.00  0.96  0.00  0.00  0.00  0.00  0.00
  YS02001622YS02001625    1.00   0.04  0.00  0.00  0.96  0.00  0.00  0.00  0.13  0.00
  YS02001625YS02001629    1.00   0.04  0.04  0.00  0.90  0.00  0.02  0.00  0.00  0.00
  YS02163301YS02001633    1.00   0.00  0.07  0.00  0.93  0.00  0.00  0.00  0.00  0.00
  YS02163601YS02164001    1.00   0.00  0.03  0.00  0.97  0.00  0.00  0.00  0.00  0.00
  YS02164001YS02001641    1.00   0.00  0.02  0.00  0.97  0.00  0.00  0.00  0.07  0.00
  YS02001641YS02001644    1.00   0.00  0.00  0.00  1.00  0.00  0.00  0.00  0.00  0.00
  YS02001647YS02001649    1.00   0.00  0.08  0.00  0.92  0.00  0.00  0.00  0.01  0.00
  YS02006553YS02006556    1.00   0.00  0.00  0.00  1.00  0.00  0.00  0.00  0.03  0.00
  YS02006556YS02006558    1.00   0.00  0.00  0.00  1.00  0.00  0.00  0.00  0.00  0.00
  YSB6556YSB1171          1.00   0.01  0.03  0.00  0.96  0.00  0.00  0.00  0.00  0.00
  YS02001907YS02006553    1.00   0.00  0.01  0.00  0.99  0.00  0.00  0.00  0.00  0.00
  YS02006558YS02006561    1.00   0.08  0.00  0.00  0.00  0.92  0.00  0.00  0.69  0.00
  YS02001633YS02163601    1.00   0.00  0.00  0.00  1.00  0.00  0.00  0.00  0.20  0.00
  YS02001644YS02001647    1.00   0.00  0.08  0.00  0.92  0.00  0.00  0.00  0.00  0.00
  YS02001745YS02001748    1.00   0.00  0.00  0.00  0.84  0.02  0.00  0.14  0.10  0.00
  YS02001748YS02001751    1.00   0.00  0.00  0.00  0.97  0.03  0.00  0.00  0.24  0.00
  YS02001751YS02001754    1.00   0.00  0.00  0.00  0.91  0.00  0.00  0.09  0.02  0.00
  YS02001754YS02001757    1.00   0.00  0.00  0.00  1.00  0.00  0.00  0.00  0.26  0.00
  YS02001882YS02001884    1.00   0.06  0.01  0.00  0.93  0.00  0.00  0.00  0.00  0.00
  YS02001884YS02001887    1.00   0.02  0.02  0.00  0.97  0.00  0.00  0.00  0.00  0.00
  YS02001890YS02001895    1.00   0.00  0.07  0.00  0.93  0.00  0.00  0.00  0.00  0.00
  YS02001895YS02001898    1.00   0.07  0.00  0.00  0.91  0.00  0.01  0.00  0.00  0.00
  YS02001898YS02001901    1.00   0.07  0.01  0.00  0.92  0.00  0.00  0.00  0.02  0.00
  YS02001901YS02001904    1.00   0.07  0.00  0.00  0.93  0.00  0.00  0.00  0.00  0.00
  YS02001904YS02001907    1.00   0.00  0.07  0.00  0.93  0.00  0.00  0.00  0.00  0.00
  YS02001887YS02001890    1.00   0.00  0.00  0.00  0.99  0.00  0.01  0.00  0.00  0.00
  YS02001652YS02001649    1.00   0.00  0.00  0.00  1.00  0.00  0.00  0.00  0.26  0.00
  YS02001655YS02001652    1.00   0.00  0.00  0.00  0.91  0.00  0.00  0.09  0.02  0.00
  YS02001658YS02001655    1.00   0.00  0.06  0.00  0.90  0.04  0.00  0.00  0.10  0.00
  YS02001661YS02001658    1.00   0.06  0.00  0.00  0.83  0.11  0.00  0.00  0.13  0.00
  YS02001664YS02001661    1.00   0.04  0.00  0.00  0.70  0.26  0.00  0.00  0.38  0.00
  YSB1154YSB6556          1.00   0.04  0.00  0.00  0.96  0.00  0.00  0.00  0.02  0.00
  YSB1174YSB1171          1.00   0.02  0.01  0.00  0.97  0.00  0.00  0.00  0.00  0.00
  YSB1171HS02004479       1.00   0.01  0.00  0.00  0.98  0.00  0.00  0.00  0.13  0.00
  HS02004881HS02006253    1.00   0.02  0.00  0.00  0.00  0.00  0.00  0.98  0.00  0.00
  YS02001793JiankangQianchi    1.00   0.00  0.00  0.00  1.00  0.00  0.00  0.00  0.62  0.00
  YS02001757CaochengTiaoxuchi    1.00   0.00  0.10  0.00  0.90  0.00  0.00  0.00  0.00  0.00
  WSF200WS02003060        1.00   0.00  0.11  0.00  0.89  0.00  0.00  0.00  0.66  0.00
  1                       1.00   0.00  0.00  0.00  0.00  1.00  0.00  0.00  0.30  0.00
  2                       1.00   1.00  0.00  0.00  0.00  0.00  0.00  0.00  0.00  0.00
  3                       1.00   0.23  0.00  0.00  0.00  0.77  0.00  0.00  0.00  0.00
  4                       1.00   1.00  0.00  0.00  0.00  0.00  0.00  0.00  0.00  0.00
  
  
  *************************
  Conduit Surcharge Summary
  *************************
  
  ----------------------------------------------------------------------------
                                                           Hours        Hours 
                         --------- Hours Full --------   Above Full   Capacity
  Conduit                Both Ends  Upstream  Dnstream   Normal Flow   Limited
  ----------------------------------------------------------------------------
  WS02006229WS02006228        0.01      0.01      0.01      0.43         0.01
  WS02006256WS02006235        2.60      2.63      5.56      2.90         0.01
  WS02006235WS02006234        0.01      0.01      0.01      2.68         0.01
  WS02006231WS02006230        0.01      0.01      0.01      2.95         0.01
  WS02006230WS02006229        0.16      0.21      0.16      4.03         0.16
  WS02006228WS02006109        0.01      0.01      0.01      0.95         0.01
  WS02006111WS02006112        0.01      0.01      0.53      0.01         0.01
  WS02004404WS02004405        0.01      0.01      0.01      2.75         0.01
  WS02003072WS02003073        0.01      0.01      0.01      1.68         0.01
  YS02001759YS02001757        5.26      5.26      5.38      0.01         0.01
  YS02001762YS02001759        5.21      5.21      5.26      0.01         0.01
  YS02001765YS02001762        5.13      5.13      5.21      0.01         0.01
  YS02001770YS02001767        5.02      5.02      5.04      0.01         0.31
  YS02001774YS02001770        4.90      4.90      5.18      0.01         0.01
  YS02001779YS02001774        4.41      4.41      5.18      0.01         0.01
  YS02001649YS02001757        5.23      5.23      5.38      0.01         0.01
  YS02001767YS02001765        5.04      5.04      5.13      0.01         0.01
  YS02001791YS02001793        0.01      0.01      0.19      0.01         0.01
  YS02001629YS02163301        4.85      4.85      4.97      0.01         0.01
  YS02001619YS02001622        3.94      3.94      3.99      0.01         0.01
  YS02001622YS02001625        3.99      3.99      4.66      0.01         0.01
  YS02001625YS02001629        3.97      3.97      4.66      0.01         0.01
  YS02163301YS02001633        4.97      4.97      5.14      0.01         0.01
  YS02163601YS02164001        5.13      5.13      5.22      0.01         0.01
  YS02164001YS02001641        5.13      5.13      5.16      0.01         0.01
  YS02001641YS02001644        5.16      5.16      5.17      0.01         0.34
  YS02001647YS02001649        4.64      4.64      5.23      0.01         0.01
  YS02001633YS02163601        5.10      5.10      5.22      0.01         0.01
  YS02001644YS02001647        4.64      4.64      5.17      0.01         0.01
  YS02001745YS02001748        0.01      0.01      3.34      0.01         0.01
  YS02001748YS02001751        3.58      3.58      4.04      0.01         0.01
  YS02001751YS02001754        4.04      4.04      4.48      0.01         0.01
  YS02001754YS02001757        4.63      4.63      5.38      0.01         0.01
  YS02001652YS02001649        4.67      4.67      5.23      0.01         0.01
  YS02001655YS02001652        4.13      4.13      4.59      0.01         0.01
  YS02001658YS02001655        3.37      3.37      4.13      0.01         0.01
  YS02001661YS02001658        0.01      0.01      3.37      0.01         0.01
  YS02001793JiankangQianchi        0.01      0.01      7.82      0.01         0.01
  YS02001757CaochengTiaoxuchi        3.73      3.73      5.38      0.01         0.01
  3                           0.01      0.01      0.01      0.01         0.01
  
  
  ***************
  Pumping Summary
  ***************
  
  ---------------------------------------------------------------------------------------------------------
                                                  Min       Avg       Max     Total     Power    % Time Off
                        Percent   Number of      Flow      Flow      Flow    Volume     Usage    Pump Curve
  Pump                 Utilized   Start-Ups       LPS       LPS       LPS  10^6 ltr     Kw-hr    Low   High
  ---------------------------------------------------------------------------------------------------------
  CC-Pump-1                0.00           0      0.00      0.00      0.00     0.000      0.00    0.0    0.0
  CC-Pump-2                0.00           0      0.00      0.00      0.00     0.000      0.00    0.0    0.0
  JK-Pump-1               37.23          11      0.00    300.00    300.00     3.150     25.80    0.0    0.0
  JK-Pump-2                0.99           3      0.00    300.00    300.00     0.084      0.61    0.0    0.0
  XR-Pump-1              100.00           1      0.00     95.00     95.00     2.679     17.98    0.0    0.0
  XR-Pump-2               94.70           1      0.00     95.00     95.00     2.537     16.55    0.0    0.0
  XR-Pump-3               60.72           3      0.00     95.00     95.00     1.627      9.67    0.0    0.0
  XR-Pump-4                0.00           0      0.00      0.00      0.00     0.000      0.00    0.0    0.0
  

  Analysis begun on:  Wed Jan  5 22:00:57 2022
  Analysis ended on:  Wed Jan  5 22:00:59 2022
  Total elapsed time: 00:00:02