
  EPA STORM WATER MANAGEMENT MODEL - VERSION 5.1 (Build 5.3.0.dev0)
  --------------------------------------------------------------

  WARNING 04: minimum elevation drop used for Conduit WS02004404WS02004405
  WARNING 03: negative offset ignored for Link YS02001904YS02001907
  
  *********************************************************
  NOTE: The summary statistics displayed in this report are
  based on results found at every computational time step,  
  not just on results from each reporting time step.
  *********************************************************
  
  ****************
  Analysis Options
  ****************
  Flow Units ............... LPS
  Process Models:
    Rainfall/Runoff ........ YES
    RDII ................... NO
    Snowmelt ............... NO
    Groundwater ............ NO
    Flow Routing ........... YES
    Ponding Allowed ........ NO
    Water Quality .......... NO
  Infiltration Method ...... HORTON
  Flow Routing Method ...... DYNWAVE
  Surcharge Method ......... EXTRAN
  Starting Date ............ 08/28/2015 08:00:00
  Ending Date .............. 08/28/2015 15:50:00
  Antecedent Dry Days ...... 8.0
  Report Time Step ......... 00:01:00
  Wet Time Step ............ 00:01:00
  Dry Time Step ............ 00:01:00
  Routing Time Step ........ 5.00 sec
  Variable Time Step ....... YES
  Maximum Trials ........... 8
  Number of Threads ........ 4
  Head Tolerance ........... 0.001500 m
  
  
  **************************        Volume         Depth
  Runoff Quantity Continuity     hectare-m            mm
  **************************     ---------       -------
  Total Precipitation ......         5.493        12.027
  Evaporation Loss .........         0.000         0.000
  Infiltration Loss ........         1.412         3.091
  Surface Runoff ...........         3.074         6.729
  Final Storage ............         1.009         2.209
  Continuity Error (%) .....        -0.014
  
  
  **************************        Volume        Volume
  Flow Routing Continuity        hectare-m      10^6 ltr
  **************************     ---------     ---------
  Dry Weather Inflow .......         0.616         6.165
  Wet Weather Inflow .......         3.072        30.724
  Groundwater Inflow .......         0.000         0.000
  RDII Inflow ..............         0.000         0.000
  External Inflow ..........         0.102         1.024
  External Outflow .........         2.842        28.417
  Flooding Loss ............         0.726         7.260
  Evaporation Loss .........         0.000         0.000
  Exfiltration Loss ........         0.000         0.000
  Initial Stored Volume ....         0.076         0.761
  Final Stored Volume ......         0.549         5.493
  Continuity Error (%) .....        -6.458
  
  
  *************************
  Highest Continuity Errors
  *************************
  Node JK-storage (-27.43%)
  Node HS02004842 (16.38%)
  Node YS02001884 (11.31%)
  Node YS02001774 (4.84%)
  Node YSB1171 (3.16%)
  
  
  ***************************
  Time-Step Critical Elements
  ***************************
  Link 3 (69.59%)
  Link WS02006252WS02006251 (23.83%)
  Link WS02006238WS02006235 (2.01%)
  
  
  ********************************
  Highest Flow Instability Indexes
  ********************************
  Link YS02001619YS02001622 (38)
  Link YS02001629YS02163301 (37)
  Link YS02163301YS02001633 (36)
  Link YS02163601YS02164001 (36)
  Link WS02006252WS02006251 (35)
  
  
  *************************
  Routing Time Step Summary
  *************************
  Minimum Time Step           :     0.24 sec
  Average Time Step           :     0.69 sec
  Maximum Time Step           :     5.00 sec
  Percent in Steady State     :    -0.00
  Average Iterations per Step :     4.71
  Percent Not Converging      :    24.78
  
  
  ***************************
  Subcatchment Runoff Summary
  ***************************
  
  ------------------------------------------------------------------------------------------------------------------------------
                            Total      Total      Total      Total     Imperv       Perv      Total       Total     Peak  Runoff
                           Precip      Runon       Evap      Infil     Runoff     Runoff     Runoff      Runoff   Runoff   Coeff
  Subcatchment                 mm         mm         mm         mm         mm         mm         mm    10^6 ltr      LPS
  ------------------------------------------------------------------------------------------------------------------------------
  sub0                      12.03       0.00       0.00       0.84       9.92       0.00       9.92        0.01     2.03   0.825
  sub1                      12.03       0.00       0.00       1.32       9.45       0.00       9.45        0.06    13.40   0.786
  sub2                      12.03       0.00       0.00       4.45       6.67       0.00       6.67        0.06    12.40   0.555
  sub3                      12.03       0.00       0.00       4.45       6.63       0.00       6.63        0.15    27.80   0.552
  sub4                      12.03       0.00       0.00       1.32       9.30       0.00       9.30        0.19    33.44   0.773
  sub5                      12.03       0.00       0.00       0.84       9.87       0.00       9.87        0.11    23.84   0.821
  sub7                      12.03       0.00       0.00       1.08       9.69       0.00       9.69        0.03     7.67   0.806
  sub8                      12.03       0.00       0.00       1.08       9.68       0.00       9.68        0.06    14.05   0.805
  sub9                      12.03       0.00       0.00       1.08       9.68       0.00       9.68        0.05    10.50   0.805
  sub10                     12.03       0.00       0.00       0.96       9.77       0.00       9.77        0.11    23.44   0.813
  sub11                     12.03       0.00       0.00       0.96       9.79       0.00       9.79        0.11    26.14   0.814
  sub12                     12.03       0.00       0.00       1.56       9.28       0.00       9.28        0.08    19.99   0.771
  sub14                     12.03       0.00       0.00       1.08       9.68       0.00       9.68        0.09    20.64   0.805
  sub15                     12.03       0.00       0.00       3.61       7.44       0.00       7.44        0.13    28.31   0.619
  sub16                     12.03       0.00       0.00       3.97       7.14       0.00       7.14        0.07    18.12   0.594
  sub17                     12.03       0.00       0.00       3.85       7.24       0.00       7.24        0.06    14.90   0.602
  sub22                     12.03       0.00       0.00       5.17       6.07       0.00       6.07        0.38    88.71   0.504
  sub23                     12.03       0.00       0.00       4.45       6.71       0.00       6.71        0.32    74.74   0.558
  sub60                     12.03       0.00       0.00       1.44       7.74       0.00       7.74        2.35   221.95   0.644
  sub61                     12.03       0.00       0.00       2.04       7.85       0.00       7.85        2.42   262.11   0.653
  sub62                     12.03       0.00       0.00       0.96       8.54       0.00       8.54        2.63   273.68   0.710
  sub63                     12.03       0.00       0.00       3.49       6.87       0.00       6.87        2.08   239.63   0.571
  sub64                     12.03       0.00       0.00       1.80       7.43       0.00       7.43        2.26   211.47   0.618
  sub65                     12.03       0.00       0.00       1.56       7.55       0.00       7.55        2.32   215.23   0.628
  sub66                     12.03       0.00       0.00       3.49       6.37       0.00       6.37        1.95   191.04   0.530
  sub67                     12.03       0.00       0.00       0.96       9.00       0.00       9.00        2.78   332.67   0.749
  sub68                     12.03       0.00       0.00       1.68       8.26       0.00       8.26        2.54   285.76   0.687
  sub69                     12.03       0.00       0.00       1.80       8.55       0.00       8.55        2.00   265.64   0.711
  sub70                     12.03       8.73       0.00       6.95      11.44       0.11      11.55        2.64   261.84   0.556
  sub71                     12.03       0.00       0.00       0.96       8.33       0.00       8.33        1.97   195.24   0.692
  sub72                     12.03       0.00       0.00       0.84       6.67       0.00       6.67        1.36   105.11   0.555
  sub73                     12.03      11.24       0.00       7.83      12.57       0.08      12.65        2.97   255.46   0.544
  sub74                     12.03       0.00       0.00       9.02       2.55       0.00       2.55        1.02   143.98   0.212
  
  
  ******************
  Node Depth Summary
  ******************
  
  ---------------------------------------------------------------------------------
                                 Average  Maximum  Maximum  Time of Max    Reported
                                   Depth    Depth      HGL   Occurrence   Max Depth
  Node                 Type       Meters   Meters   Meters  days hr:min      Meters
  ---------------------------------------------------------------------------------
  WS02001211           JUNCTION     0.70     0.78     5.62     0  03:21        0.78
  WS02001212           JUNCTION     0.42     0.49     5.56     0  03:21        0.49
  WS02001213           JUNCTION     0.67     0.74     5.50     0  03:21        0.74
  WS02003069           JUNCTION     0.49     0.59     5.18     0  01:54        0.59
  WS02003072           JUNCTION     0.56     0.65     5.02     0  01:54        0.65
  WS02003073           JUNCTION     0.34     0.40     4.46     0  01:55        0.40
  WS02003060           JUNCTION     0.44     0.52     5.45     0  01:53        0.52
  WS02003066           JUNCTION     0.26     0.33     5.88     0  01:51        0.33
  WS02003059           JUNCTION     0.72     0.79     5.48     0  01:52        0.79
  WS02003067           JUNCTION     0.63     0.75     6.07     0  01:51        0.75
  WS02004401           JUNCTION     0.76     0.99     6.99     0  01:47        0.99
  WS02004402           JUNCTION     0.79     1.01     6.97     0  01:47        1.01
  WS02004403           JUNCTION     0.80     1.01     6.94     0  01:47        1.01
  WS02004404           JUNCTION     0.88     1.07     6.92     0  01:47        1.07
  WS02004406           JUNCTION     0.88     1.04     6.87     0  01:47        1.04
  WS02004409           JUNCTION     0.57     0.76     6.53     0  01:50        0.76
  WS02004410           JUNCTION     0.59     0.77     6.49     0  01:50        0.77
  WS02004411           JUNCTION     0.60     0.77     6.45     0  01:50        0.77
  WS02004412           JUNCTION     0.61     0.77     6.41     0  01:50        0.77
  WS02004413           JUNCTION     0.76     0.92     6.39     0  01:51        0.92
  WS02004405           JUNCTION     0.87     1.06     6.91     0  01:47        1.05
  WS02006109           JUNCTION     0.85     1.17     7.79     0  01:39        1.14
  WS02006110           JUNCTION     0.83     1.08     7.66     0  01:38        1.03
  WS02006111           JUNCTION     0.25     0.38     7.09     0  01:46        0.38
  WS02006112           JUNCTION     0.94     1.21     7.10     0  01:49        1.21
  WS02006113           JUNCTION     0.40     0.52     7.41     0  01:39        0.51
  WS02006115           JUNCTION     0.66     0.91     7.05     0  01:47        0.91
  WS02006116           JUNCTION     0.74     0.98     7.02     0  01:47        0.98
  WS02006230           JUNCTION     0.87     1.66     8.40     0  01:38        1.23
  WS02006231           JUNCTION     0.60     1.44     8.56     0  01:38        0.88
  WS02006232           JUNCTION     0.74     1.49     8.53     0  01:38        0.98
  WS02006234           JUNCTION     0.68     1.28     8.44     0  01:38        0.90
  WS02006235           JUNCTION     0.71     1.25     8.42     0  01:38        0.92
  WS02006238           JUNCTION     0.74     1.31     8.45     0  01:38        0.94
  WS02006240           JUNCTION     0.65     1.61     8.90     0  01:38        0.84
  WS02006242           JUNCTION     0.72     1.55     8.82     0  01:38        0.90
  WS02006243           JUNCTION     0.60     1.48     8.90     0  01:38        0.78
  WS02006245           JUNCTION     0.58     0.94     8.42     0  01:39        0.74
  WS02006247           JUNCTION     0.59     1.40     8.90     0  01:39        0.74
  WS02006248           JUNCTION     0.53     0.70     8.29     0  01:39        0.67
  WS02006249           JUNCTION     0.55     0.67     8.27     0  01:41        0.67
  WS02006239           JUNCTION     0.71     1.41     8.62     0  01:38        0.90
  WS02006251           JUNCTION     0.56     0.74     8.41     0  01:40        0.73
  WS02006252           JUNCTION     0.50     0.59     8.84     0  02:28        0.59
  WS02006253           JUNCTION     0.58     0.76     8.40     0  01:40        0.76
  WS02006256           JUNCTION     1.15     2.35     9.28     0  00:00        1.22
  WS02004138           JUNCTION     0.16     0.19     7.44     0  01:20        0.19
  WS02004407           JUNCTION     0.26     0.33     6.65     0  01:48        0.33
  WS02006228           JUNCTION     0.87     1.26     7.91     0  01:39        1.23
  WS02006229           JUNCTION     0.86     1.28     7.98     0  01:39        1.27
  WS02006280           JUNCTION     0.07     0.19     8.46     0  01:42        0.19
  WS02006284           JUNCTION     0.38     0.54     8.94     0  01:42        0.54
  WS02006287           JUNCTION     0.11     0.28     9.23     0  01:42        0.28
  WSF200               JUNCTION     0.26     0.36     5.59     0  01:53        0.36
  HS02004901           JUNCTION     0.13     0.28    10.10     0  01:39        0.28
  HS02004881           JUNCTION     0.01     0.03     9.06     0  01:43        0.03
  HS02004876           JUNCTION     0.05     0.12     9.15     0  01:43        0.12
  HS02004870           JUNCTION     0.02     0.06     9.35     0  01:43        0.06
  HS02004862           JUNCTION     0.02     0.07     9.45     0  01:44        0.07
  HS02004856           JUNCTION     0.08     0.12     9.55     0  01:44        0.12
  HS02004852           JUNCTION     0.01     0.04     9.56     0  01:52        0.04
  HS02004848           JUNCTION     0.01     0.04     9.64     0  01:51        0.04
  HS02004842           JUNCTION     0.34     0.37     9.64     0  01:51        0.37
  HS02004837           JUNCTION     0.03     0.06     9.64     0  01:51        0.06
  HS02004830           JUNCTION     0.04     0.08     9.55     0  01:45        0.08
  HS02004824           JUNCTION     0.03     0.06     9.46     0  01:54        0.06
  HS02004817           JUNCTION     0.45     0.59     9.43     0  01:43        0.59
  HS02004807           JUNCTION     0.13     0.26     9.43     0  01:43        0.26
  HS02004802           JUNCTION     0.17     0.30     9.42     0  01:43        0.29
  HS02004799           JUNCTION     0.13     0.33     9.54     0  01:40        0.33
  HS02004792           JUNCTION     0.04     0.14     9.66     0  01:40        0.14
  HS02004788           JUNCTION     0.03     0.10    10.00     0  01:40        0.10
  HS02004785           JUNCTION     0.05     0.17    10.07     0  01:40        0.17
  HS02004777           JUNCTION     0.16     0.30    10.10     0  01:39        0.30
  HS02004770           JUNCTION     0.13     0.27    10.10     0  01:39        0.27
  HS02004480           JUNCTION     0.09     0.27     9.51     0  01:41        0.27
  HS02004479           JUNCTION     0.13     0.30     9.51     0  01:40        0.30
  HS02004478           JUNCTION     0.07     0.18     9.41     0  01:42        0.18
  YS02001745           JUNCTION     0.69     0.87     8.39     0  02:57        0.87
  YS02001748           JUNCTION     1.10     2.27     9.35     0  02:11        1.31
  YS02001751           JUNCTION     1.28     2.20     9.08     0  01:58        1.52
  YS02001754           JUNCTION     1.54     2.15     8.75     0  02:12        1.81
  YS02001762           JUNCTION     1.75     2.06     8.46     0  02:12        2.02
  YS02001765           JUNCTION     1.70     2.00     8.45     0  02:12        1.96
  YS02001767           JUNCTION     1.66     1.94     8.43     0  02:12        1.92
  YS02001770           JUNCTION     1.66     1.95     8.44     0  02:06        1.90
  YS02001774           JUNCTION     1.73     2.03     8.45     0  02:06        1.97
  YS02001779           JUNCTION     1.47     1.68     8.37     0  02:04        1.68
  YS02001882           JUNCTION     0.51     1.30     8.02     0  02:36        1.28
  YS02001884           JUNCTION     0.61     1.40     8.01     0  02:36        1.39
  YS02001759           JUNCTION     1.78     2.08     8.45     0  02:12        2.06
  YS02001887           JUNCTION     0.69     1.48     8.02     0  02:36        1.47
  YS02001890           JUNCTION     0.72     1.51     8.01     0  02:36        1.49
  YS02001898           JUNCTION     0.49     1.26     7.99     0  02:36        1.25
  YS02001901           JUNCTION     0.61     1.39     7.99     0  02:37        1.37
  YS02001904           JUNCTION     0.58     1.36     7.99     0  02:36        1.35
  YS02001907           JUNCTION     0.92     1.70     7.99     0  02:36        1.69
  YS02001910           JUNCTION     0.70     1.49     7.99     0  02:36        1.47
  YS02001915           JUNCTION     0.50     1.28     8.00     0  02:36        1.28
  YS02001918           JUNCTION     0.24     0.92     7.99     0  02:36        0.92
  YS02001619           JUNCTION     1.26     1.61     8.54     0  02:07        1.47
  YS02001629           JUNCTION     1.62     1.85     8.40     0  02:08        1.85
  YS02001641           JUNCTION     1.72     2.00     8.43     0  02:11        1.93
  YS02001644           JUNCTION     1.72     1.92     8.35     0  02:06        1.92
  YS02001652           JUNCTION     1.56     2.16     8.76     0  02:07        2.12
  YS02001655           JUNCTION     1.32     2.20     9.05     0  01:55        2.11
  YS02001920           JUNCTION     0.34     0.98     7.99     0  02:36        0.98
  YS02001923           JUNCTION     0.18     0.73     7.99     0  02:36        0.72
  YS02001926           JUNCTION     0.23     0.55     7.99     0  02:37        0.54
  YS02001929           JUNCTION     0.12     0.30     7.99     0  02:37        0.29
  YS02001658           JUNCTION     1.04     2.30     9.44     0  02:08        1.83
  YS02001661           JUNCTION     0.80     2.46     9.86     0  02:34        1.54
  YS02001664           JUNCTION     0.33     0.57     8.50     0  02:29        0.57
  YS02001622           JUNCTION     1.28     1.62     8.52     0  02:07        1.49
  YS02001633           JUNCTION     1.71     2.02     8.47     0  02:12        1.93
  YS02001649           JUNCTION     1.76     2.05     8.44     0  02:06        2.05
  YS02001757           JUNCTION     1.88     2.21     8.47     0  02:12        2.16
  YS02001895           JUNCTION     0.48     1.26     8.00     0  02:37        1.25
  YS02001625           JUNCTION     1.57     1.78     8.38     0  02:07        1.78
  YS02163301           JUNCTION     1.65     1.95     8.47     0  02:12        1.87
  YS02163601           JUNCTION     1.76     2.07     8.47     0  02:11        1.98
  YS02164001           JUNCTION     1.70     2.01     8.47     0  02:11        1.91
  YS02001647           JUNCTION     1.55     1.82     8.43     0  02:12        1.79
  YSB1154              JUNCTION     0.27     0.45     9.51     0  01:40        0.45
  YSB6556              JUNCTION     0.16     0.34     9.51     0  01:40        0.34
  YSB1174              JUNCTION     0.22     0.40     9.51     0  01:41        0.40
  YSB1171              JUNCTION     0.42     0.61     9.51     0  01:40        0.61
  YS02006553           JUNCTION     0.92     1.69     7.97     0  02:36        1.67
  YS02006561           JUNCTION     0.29     0.88     7.54     0  02:37        0.87
  YS02006556           JUNCTION     0.88     1.64     7.95     0  02:36        1.63
  YS02006558           JUNCTION     0.93     1.68     7.95     0  02:36        1.67
  YS02001783           JUNCTION     0.51     1.38     7.52     0  02:20        1.29
  YS02001784           JUNCTION     0.52     1.53     7.60     0  02:20        1.25
  YS02001786           JUNCTION     0.46     1.57     7.60     0  02:20        1.13
  YS02001788           JUNCTION     0.38     1.70     7.67     0  02:20        1.03
  YS02001790           JUNCTION     0.47     1.79     7.43     0  02:20        1.23
  YS02001791           JUNCTION     0.41     1.41     6.88     0  02:20        1.24
  YS02001793           JUNCTION     0.51     1.80     6.63     0  02:38        1.79
  WS02004139           JUNCTION     0.64     0.72     5.63     0  03:20        0.72
  WSC                  OUTFALL      0.34     0.40     1.07     0  01:55        0.40
  3                    OUTFALL      0.16     0.23     6.23     0  00:00        0.22
  4                    OUTFALL      0.07     0.17     7.17     0  01:41        0.17
  5                    OUTFALL      0.00     0.00     5.00     0  00:00        0.00
  JK-storage           STORAGE      1.78     5.80     6.60     0  02:21        5.80
  CC-storage           STORAGE      1.08     1.36     8.36     0  03:28        1.36
  XR-storage           STORAGE      6.87     7.72     5.72     0  02:23        7.72
  
  
  *******************
  Node Inflow Summary
  *******************
  
  -------------------------------------------------------------------------------------------------
                                  Maximum  Maximum                  Lateral       Total        Flow
                                  Lateral    Total  Time of Max      Inflow      Inflow     Balance
                                   Inflow   Inflow   Occurrence      Volume      Volume       Error
  Node                 Type           LPS      LPS  days hr:min    10^6 ltr    10^6 ltr     Percent
  -------------------------------------------------------------------------------------------------
  WS02001211           JUNCTION      7.35   382.20     0  01:20       0.207        7.98       0.458
  WS02001212           JUNCTION      0.00   378.77     0  01:21           0        7.94       0.256
  WS02001213           JUNCTION      0.00   378.18     0  01:21           0        7.92       0.326
  WS02003069           JUNCTION      0.32   962.28     0  01:53     0.00902        18.3       0.188
  WS02003072           JUNCTION      0.00   962.02     0  01:54           0        18.3       0.225
  WS02003073           JUNCTION      1.82   964.13     0  01:54      0.0514        18.3       0.258
  WS02003060           JUNCTION     16.53   962.19     0  01:53       0.466        18.3       0.178
  WS02003066           JUNCTION      0.00   675.83     0  01:51           0          10       0.052
  WS02003059           JUNCTION      0.00   377.06     0  03:22           0         7.9       0.498
  WS02003067           JUNCTION      0.00   675.70     0  01:51           0          10       0.104
  WS02004401           JUNCTION      0.00   679.76     0  01:49           0        10.3       0.236
  WS02004402           JUNCTION      0.00   678.23     0  01:47           0        10.3       0.219
  WS02004403           JUNCTION      0.00   678.30     0  01:48           0        10.2       0.197
  WS02004404           JUNCTION      0.16   678.88     0  01:48     0.00457        10.2       0.146
  WS02004406           JUNCTION      0.00   679.16     0  01:48           0        10.2       0.354
  WS02004409           JUNCTION      0.00   678.50     0  01:48           0        10.1       0.195
  WS02004410           JUNCTION      0.00   677.13     0  01:48           0        10.1       0.216
  WS02004411           JUNCTION      0.00   676.18     0  01:50           0        10.1       0.218
  WS02004412           JUNCTION      0.00   675.91     0  01:50           0        10.1       0.231
  WS02004413           JUNCTION      0.00   676.11     0  01:50           0        10.1       0.337
  WS02004405           JUNCTION      0.04   678.99     0  01:48     0.00107        10.2       0.219
  WS02006109           JUNCTION      1.23   690.95     0  01:39      0.0347        10.4       0.230
  WS02006110           JUNCTION      0.00   690.95     0  01:39           0        10.3       0.209
  WS02006111           JUNCTION      0.00   706.29     0  01:39           0        10.3       0.050
  WS02006112           JUNCTION     14.90   693.93     0  01:40      0.0621        10.4       0.297
  WS02006113           JUNCTION      0.00   693.22     0  01:39           0        10.3       0.115
  WS02006115           JUNCTION      0.00   693.73     0  01:39           0        10.3       0.234
  WS02006116           JUNCTION      0.00   681.70     0  01:48           0        10.3       0.222
  WS02006230           JUNCTION     10.28   402.03     0  04:21        0.29        8.52       0.202
  WS02006231           JUNCTION      0.00   391.71     0  04:21           0        8.24       0.143
  WS02006232           JUNCTION      0.00   391.71     0  04:21           0        8.25       0.213
  WS02006234           JUNCTION      0.00   391.69     0  04:21           0        8.26       0.127
  WS02006235           JUNCTION      0.00   391.69     0  04:21           0         8.3       0.146
  WS02006238           JUNCTION      0.00   311.29     0  07:48           0        6.26       0.146
  WS02006240           JUNCTION      0.00   317.97     0  01:38           0        6.26       0.253
  WS02006242           JUNCTION      0.00   339.41     0  01:38           0        6.27       0.305
  WS02006243           JUNCTION      0.00   367.09     0  01:37           0        6.28       0.217
  WS02006245           JUNCTION      0.00   380.81     0  01:37           0        6.29       0.195
  WS02006247           JUNCTION      0.00   387.43     0  01:37           0         6.3       0.170
  WS02006248           JUNCTION      0.00   396.08     0  01:36           0        6.31       0.131
  WS02006249           JUNCTION      0.00   490.47     0  01:40           0        8.16       0.171
  WS02006239           JUNCTION      0.00   311.28     0  07:48           0        6.26       0.234
  WS02006251           JUNCTION      0.08   499.06     0  01:40     0.00217        8.19       0.175
  WS02006252           JUNCTION      0.00   400.00     0  01:35           0        7.82       0.006
  WS02006253           JUNCTION      2.03    76.41     0  01:43     0.00803       0.375       2.209
  WS02006256           JUNCTION      0.00   600.00     0  00:00           0        10.4       0.024
  WS02004138           JUNCTION      0.00   379.97     0  03:20           0        7.81       0.065
  WS02004407           JUNCTION      0.00   679.12     0  01:47           0        10.2       0.087
  WS02006228           JUNCTION      0.00   689.75     0  01:39           0        10.4       0.164
  WS02006229           JUNCTION      0.00   694.82     0  01:38           0        10.4       0.132
  WS02006280           JUNCTION      0.00   366.27     0  01:42           0        1.87       0.003
  WS02006284           JUNCTION      0.10   366.30     0  01:42      0.0027        1.87       0.025
  WS02006287           JUNCTION      0.00   366.22     0  01:42           0        1.87       0.038
  WSF200               JUNCTION      0.00   675.87     0  01:51           0          10       0.054
  HS02004901           JUNCTION     18.12    18.12     0  01:36      0.0747      0.0749       2.401
  HS02004881           JUNCTION      7.67    74.61     0  01:43      0.0326       0.352       0.122
  HS02004876           JUNCTION     13.40    67.33     0  01:43      0.0628        0.32       0.168
  HS02004870           JUNCTION     14.05    54.07     0  01:43      0.0618       0.257       0.041
  HS02004862           JUNCTION     12.60    40.55     0  01:44      0.0678       0.196       0.087
  HS02004856           JUNCTION     10.50    27.98     0  01:43      0.0465       0.129       1.124
  HS02004852           JUNCTION      0.00    17.93     0  01:51           0      0.0829       0.064
  HS02004848           JUNCTION     27.80    27.80     0  01:53       0.149       0.149       0.029
  HS02004842           JUNCTION      0.00    10.09     0  01:58           0      0.0794      19.593
  HS02004837           JUNCTION     29.79    38.22     0  01:51       0.287       0.353       0.230
  HS02004830           JUNCTION      0.15    38.36     0  01:51     0.00423       0.344       0.360
  HS02004824           JUNCTION     33.49    71.74     0  01:54       0.195       0.538       0.100
  HS02004817           JUNCTION      0.60    72.33     0  01:54      0.0169       0.554       3.102
  HS02004807           JUNCTION     26.14    95.63     0  01:52       0.114       0.651       0.672
  HS02004802           JUNCTION      0.00    95.92     0  01:53           0       0.649       0.613
  HS02004799           JUNCTION     20.64   230.90     0  01:40      0.0921        1.05       0.259
  HS02004792           JUNCTION     88.99   210.32     0  01:39       0.391       0.955       0.041
  HS02004788           JUNCTION     29.98   122.04     0  01:40       0.175       0.565       0.068
  HS02004785           JUNCTION      0.15    92.14     0  01:39     0.00423       0.391       0.126
  HS02004777           JUNCTION      0.03    92.19     0  01:38    0.000846       0.391       1.344
  HS02004770           JUNCTION     74.74    92.54     0  01:38        0.32       0.393       0.790
  HS02004480           JUNCTION      0.00   273.94     0  01:41           0        1.24       0.088
  HS02004479           JUNCTION      0.00    43.17     0  01:41           0       0.201       0.365
  HS02004478           JUNCTION      0.00   366.17     0  01:42           0        1.87       0.019
  YS02001745           JUNCTION    221.95   385.67     0  02:10        2.35        2.35       0.287
  YS02001748           JUNCTION      0.04   591.55     0  02:11     0.00127        2.35       0.832
  YS02001751           JUNCTION      0.01   485.54     0  01:58     0.00031        2.32       1.018
  YS02001754           JUNCTION      0.26   252.05     0  02:11     0.00733         2.3       1.059
  YS02001762           JUNCTION      0.00   279.13     0  02:14           0         2.1       1.008
  YS02001765           JUNCTION      0.00   277.96     0  02:14           0         2.1       1.163
  YS02001767           JUNCTION      0.54   276.91     0  02:14      0.0151        2.12       1.696
  YS02001770           JUNCTION    273.83   274.52     0  02:28        2.63        2.64       1.198
  YS02001774           JUNCTION      0.00   204.39     0  03:00           0       0.515       5.082
  YS02001779           JUNCTION      0.01   204.58     0  03:00    0.000141       0.482       3.225
  YS02001882           JUNCTION      0.00    22.95     0  02:23           0      0.0149      16.500
  YS02001884           JUNCTION      0.00    34.37     0  02:21           0      0.0507      12.752
  YS02001759           JUNCTION    262.15   541.39     0  02:14        2.42        4.48       0.511
  YS02001887           JUNCTION    333.12   337.84     0  02:25        2.79        2.82       0.287
  YS02001890           JUNCTION      0.00   338.60     0  02:24           0        2.77       0.317
  YS02001898           JUNCTION      0.00   344.29     0  02:24           0        2.76       0.097
  YS02001901           JUNCTION      0.00   337.37     0  02:25           0        2.76       0.240
  YS02001904           JUNCTION      0.00   336.67     0  02:25           0        2.76       0.218
  YS02001907           JUNCTION      0.00   605.41     0  02:39           0        6.14       0.387
  YS02001910           JUNCTION      0.00   320.02     0  03:04           0        3.39       0.335
  YS02001915           JUNCTION    195.26   316.46     0  02:52        1.97         3.4       0.167
  YS02001918           JUNCTION      0.00   153.53     0  02:51           0        1.43       0.123
  YS02001619           JUNCTION    191.04   191.04     0  02:29        1.95        1.95       0.601
  YS02001629           JUNCTION      0.00   225.98     0  01:59           0         1.8       1.554
  YS02001641           JUNCTION      0.00   417.76     0  02:07           0        4.03       0.519
  YS02001644           JUNCTION    211.51   919.52     0  03:00        2.26        7.26       0.357
  YS02001652           JUNCTION      0.00   295.26     0  02:05           0        2.04       1.119
  YS02001655           JUNCTION      0.15   474.96     0  02:04     0.00434        2.07       1.163
  YS02001920           JUNCTION      2.87   143.59     0  02:43      0.0809        1.44       0.196
  YS02001923           JUNCTION      0.04   119.99     0  02:49     0.00106        1.36       0.044
  YS02001926           JUNCTION      0.05   135.50     0  02:50     0.00147        1.36       0.234
  YS02001929           JUNCTION    105.11   105.11     0  02:59        1.36        1.36       0.036
  YS02001658           JUNCTION      0.00   642.40     0  02:08           0         2.1       0.851
  YS02001661           JUNCTION      0.00   637.24     0  02:29           0        2.89      -0.284
  YS02001664           JUNCTION    239.63   371.61     0  02:29        2.08        2.87       0.091
  YS02001622           JUNCTION      0.00   206.01     0  02:00           0        1.94       1.623
  YS02001633           JUNCTION    215.43   417.84     0  02:07        2.33        4.09       0.785
  YS02001649           JUNCTION      0.00   862.51     0  02:24           0        5.38       0.688
  YS02001757           JUNCTION      0.00  1599.00     0  02:25           0          11       0.832
  YS02001895           JUNCTION      0.00   340.23     0  02:24           0        2.77       0.179
  YS02001625           JUNCTION      0.00   225.93     0  01:59           0        1.91       2.074
  YS02163301           JUNCTION      0.00   225.21     0  02:05           0        1.79       1.345
  YS02163601           JUNCTION      0.11   417.96     0  02:07      0.0031        4.04       0.745
  YS02164001           JUNCTION      0.00   417.91     0  02:07           0        4.02       0.490
  YS02001647           JUNCTION      0.00   617.91     0  02:25           0        3.99       0.707
  YSB1154              JUNCTION     23.84    23.84     0  01:41       0.112       0.113       1.299
  YSB6556              JUNCTION      0.00    24.02     0  01:41           0       0.113       1.116
  YSB1174              JUNCTION     19.99    19.99     0  01:36       0.081      0.0815       1.597
  YSB1171              JUNCTION      0.00    43.60     0  01:40           0         0.2       3.266
  YS02006553           JUNCTION      0.00   605.39     0  02:39           0        6.13       0.246
  YS02006561           JUNCTION      0.00   889.31     0  02:19           0        8.64       0.006
  YS02006556           JUNCTION      0.00   605.22     0  02:38           0        6.14       0.180
  YS02006558           JUNCTION    286.64   889.42     0  02:19        2.56        8.67       0.061
  YS02001783           JUNCTION      0.00   888.16     0  02:19           0        8.64       0.025
  YS02001784           JUNCTION      1.06   889.11     0  02:19      0.0299        8.66       0.040
  YS02001786           JUNCTION      0.06   888.20     0  02:18     0.00159        8.66       0.036
  YS02001788           JUNCTION      0.07   887.07     0  02:18       0.002        8.66       0.022
  YS02001790           JUNCTION      0.15   887.54     0  02:18     0.00437        8.66       0.029
  YS02001791           JUNCTION      0.00   933.45     0  02:17           0        8.66       0.010
  YS02001793           JUNCTION      0.00   889.31     0  02:14           0        8.66       0.003
  WS02004139           JUNCTION      0.32   379.79     0  01:20     0.00905        7.81       0.505
  WSC                  OUTFALL       0.00   964.44     0  01:55           0        18.2       0.000
  3                    OUTFALL       0.00   597.65     0  00:00           0        8.35       0.000
  4                    OUTFALL       0.00   255.99     0  01:41           0        1.83       0.000
  5                    OUTFALL       0.00     0.00     0  00:00           0           0       0.000 ltr
  JK-storage           STORAGE       0.00   876.94     0  02:36           0        8.81     -21.526
  CC-storage           STORAGE       0.00  1599.24     0  02:25           0        10.5       0.144
  XR-storage           STORAGE     560.10   560.10     0  02:30        9.63        10.2       0.000
  
  
  **********************
  Node Surcharge Summary
  **********************
  
  Surcharging occurs when water rises above the top of the highest conduit.
  ---------------------------------------------------------------------
                                               Max. Height   Min. Depth
                                   Hours       Above Crown    Below Rim
  Node                 Type      Surcharged         Meters       Meters
  ---------------------------------------------------------------------
  WS02004402           JUNCTION        0.08          0.007        1.733
  WS02004403           JUNCTION        0.13          0.009        2.021
  WS02004404           JUNCTION        0.61          0.070        2.710
  WS02004406           JUNCTION        0.44          0.040        2.410
  WS02004405           JUNCTION        0.50          0.057        2.743
  WS02006109           JUNCTION        5.18          0.349        1.471
  WS02006110           JUNCTION        1.13          0.167        1.683
  WS02006112           JUNCTION        1.56          0.215        1.465
  WS02006230           JUNCTION        0.55          0.577        0.993
  WS02006231           JUNCTION        0.95          0.725        0.805
  WS02006232           JUNCTION        5.43          0.793        0.687
  WS02006234           JUNCTION        1.54          0.565        0.675
  WS02006235           JUNCTION        4.60          0.544        0.746
  WS02006238           JUNCTION        4.96          0.586        0.844
  WS02006240           JUNCTION        1.50          0.900        0.490
  WS02006242           JUNCTION        4.48          0.820        0.000
  WS02006243           JUNCTION        0.87          0.770        0.000
  WS02006245           JUNCTION        0.37          0.227        0.623
  WS02006247           JUNCTION        0.38          0.694        0.066
  WS02006239           JUNCTION        2.69          0.674        0.616
  WS02006252           JUNCTION        5.30          0.193        0.907
  WS02006256           JUNCTION        0.01          1.050        0.000
  WS02006228           JUNCTION        5.02          0.429        1.771
  YS02001748           JUNCTION        4.88          1.190        0.000
  YS02001751           JUNCTION        5.72          1.200        0.000
  YS02001754           JUNCTION        5.98          1.096        0.054
  YS02001762           JUNCTION        6.14          1.063        0.087
  YS02001765           JUNCTION        6.13          0.996        0.104
  YS02001767           JUNCTION        6.12          0.944        0.086
  YS02001770           JUNCTION        6.11          0.920        0.000
  YS02001774           JUNCTION        6.14          1.026        0.024
  YS02001779           JUNCTION        5.96          0.680        0.000
  YS02001882           JUNCTION        0.68          0.299        0.531
  YS02001884           JUNCTION        0.74          0.337        0.533
  YS02001759           JUNCTION        6.15          1.081        0.129
  YS02001887           JUNCTION        0.94          0.429        0.521
  YS02001890           JUNCTION        1.03          0.457        0.303
  YS02001898           JUNCTION        0.61          0.229        0.511
  YS02001901           JUNCTION        0.81          0.386        0.484
  YS02001904           JUNCTION        0.78          0.358        0.492
  YS02001907           JUNCTION        1.69          0.689        0.261
  YS02001910           JUNCTION        1.11          0.485        0.615
  YS02001915           JUNCTION        0.67          0.277        0.723
  YS02001619           JUNCTION        5.75          0.610        0.000
  YS02001629           JUNCTION        5.74          0.470        0.000
  YS02001641           JUNCTION        6.13          0.996        0.104
  YS02001644           JUNCTION        6.13          0.920        0.000
  YS02001652           JUNCTION        6.04          1.130        0.000
  YS02001655           JUNCTION        5.76          1.200        0.000
  YS02001658           JUNCTION        4.97          1.300        0.000
  YS02001661           JUNCTION        0.21          1.390        0.000
  YS02001622           JUNCTION        5.79          0.620        0.000
  YS02001633           JUNCTION        6.12          1.001        0.059
  YS02001649           JUNCTION        6.15          1.050        0.000
  YS02001757           JUNCTION        6.19          1.210        0.000
  YS02001895           JUNCTION        0.63          0.255        0.495
  YS02001625           JUNCTION        6.09          0.780        0.000
  YS02163301           JUNCTION        6.11          0.948        0.082
  YS02163601           JUNCTION        6.15          1.067        0.013
  YS02164001           JUNCTION        6.12          1.011        0.089
  YS02001647           JUNCTION        6.06          0.816        0.084
  YS02006553           JUNCTION        1.73          0.689        0.501
  YS02006561           JUNCTION        0.37          0.078        1.072
  YS02006556           JUNCTION        1.42          0.599        0.751
  YS02006558           JUNCTION        1.37          0.578        0.822
  YS02001783           JUNCTION        1.22          0.583        1.017
  YS02001784           JUNCTION        1.14          0.729        0.761
  YS02001786           JUNCTION        1.10          0.773        0.657
  YS02001788           JUNCTION        1.10          0.895        0.585
  YS02001790           JUNCTION        1.29          0.986        0.171
  YS02001791           JUNCTION        1.34          0.614        1.306
  YS02001793           JUNCTION        1.46          0.800        1.800
  
  
  *********************
  Node Flooding Summary
  *********************
  
  Flooding refers to all water that overflows a node, whether it ponds or not.
  --------------------------------------------------------------------------
                                                             Total   Maximum
                                 Maximum   Time of Max       Flood    Ponded
                        Hours       Rate    Occurrence      Volume     Depth
  Node                 Flooded       LPS   days hr:min    10^6 ltr    Meters
  --------------------------------------------------------------------------
  WS02006242              0.01     19.10      0  01:38       0.000     0.000
  WS02006243              0.01     80.62      0  01:38       0.000     0.000
  WS02006256              0.01    406.11      0  00:00       0.001     0.000
  YS02001748              0.01    169.68      0  02:12       0.000     0.000
  YS02001751              0.01    164.16      0  01:58       0.000     0.000
  YS02001770              0.01      6.96      0  02:06       0.000     0.000
  YS02001779              1.93    204.56      0  03:00       0.461     0.000
  YS02001619              0.01     22.39      0  02:09       0.000     0.000
  YS02001629              0.01     31.93      0  02:10       0.001     0.000
  YS02001644              3.05    919.46      0  03:00       4.229     0.000
  YS02001652              0.01     23.60      0  02:39       0.000     0.000
  YS02001655              0.01    305.73      0  02:07       0.001     0.000
  YS02001658              0.01    373.52      0  02:08       0.001     0.000
  YS02001661              0.01    189.69      0  02:39       0.001     0.000
  YS02001622              0.01     38.31      0  02:08       0.000     0.000
  YS02001649              0.09     51.51      0  02:39       0.005     0.000
  YS02001757              0.01     11.28      0  02:12       0.000     0.000
  YS02001625              0.78     44.27      0  02:34       0.081     0.000
  JK-storage              1.09    276.94      0  02:36       0.808     0.000
  XR-storage              3.44    362.43      0  02:50       1.671     0.000
  
  
  **********************
  Storage Volume Summary
  **********************
  
  --------------------------------------------------------------------------------------------------
                         Average     Avg  Evap Exfil       Maximum     Max    Time of Max    Maximum
                          Volume    Pcnt  Pcnt  Pcnt        Volume    Pcnt     Occurrence    Outflow
  Storage Unit           1000 m3    Full  Loss  Loss       1000 m3    Full    days hr:min        LPS
  --------------------------------------------------------------------------------------------------
  JK-storage               0.090      31     0     0         0.291     100       0  02:21     600.00
  CC-storage               3.013      19     0     0         3.796      24       0  03:28     400.00
  XR-storage               0.824      89     0     0         0.926     100       0  02:23     379.97
  
  
  ***********************
  Outfall Loading Summary
  ***********************
  
  -----------------------------------------------------------
                         Flow       Avg       Max       Total
                         Freq      Flow      Flow      Volume
  Outfall Node           Pcnt       LPS       LPS    10^6 ltr
  -----------------------------------------------------------
  WSC                  100.00    719.92    964.44      18.236
  3                     97.13    379.84    597.65       8.349
  4                     80.73     96.30    255.99       1.831
  5                      0.00      0.00      0.00       0.000
  -----------------------------------------------------------
  System                69.46   1196.05   1740.62      28.417
  
  
  ********************
  Link Flow Summary
  ********************
  
  -----------------------------------------------------------------------------
                                 Maximum  Time of Max   Maximum    Max/    Max/
                                  |Flow|   Occurrence   |Veloc|    Full    Full
  Link                 Type          LPS  days hr:min     m/sec    Flow   Depth
  -----------------------------------------------------------------------------
  WS02003066WSF200     CONDUIT    675.87     0  01:51      2.86    0.11    0.26
  WS02006287WS02006284 CONDUIT    366.21     0  01:42      1.96    0.17    0.29
  WS02006284WS02006280 CONDUIT    366.27     0  01:42      2.20    0.15    0.26
  WS02006280WS02006229 CONDUIT    366.28     0  01:42      3.55    0.08    0.19
  WS02006229WS02006228 CONDUIT    689.75     0  01:39      1.37    2.28    1.00
  WS02006256WS02006235 CONDUIT    177.52     0  00:01      2.73    1.88    1.00
  WS02006253WS02006251 CONDUIT     98.98     0  01:40      0.58    0.30    1.00
  WS02006252WS02006251 CONDUIT    400.39     0  07:17      3.19    1.47    1.00
  WS02006251WS02006249 CONDUIT    490.47     0  01:40      1.31    1.41    0.98
  WS02006249WS02006248 CONDUIT    396.08     0  01:36      1.29    2.17    0.95
  WS02006248WS02006247 CONDUIT    387.43     0  01:37      1.26    0.84    1.00
  WS02006247WS02006245 CONDUIT    380.81     0  01:37      1.22    3.02    1.00
  WS02006245WS02006243 CONDUIT    367.09     0  01:37      1.27    1.09    1.00
  WS02006243WS02006242 CONDUIT    339.41     0  01:38      1.05    0.73    1.00
  WS02006242WS02006240 CONDUIT    317.97     0  01:38      0.87    1.26    1.00
  WS02006240WS02006239 CONDUIT    311.28     0  07:48      0.81    0.98    1.00
  WS02006239WS02006238 CONDUIT    311.29     0  07:48      0.81    1.00    1.00
  WS02006238WS02006235 CONDUIT    311.29     0  07:48      1.32    0.69    1.00
  WS02006235WS02006234 CONDUIT    391.69     0  04:21      1.02    4.13    1.00
  WS02006234WS02006232 CONDUIT    391.71     0  04:21      1.17    0.79    1.00
  WS02006232WS02006231 CONDUIT    391.71     0  04:21      1.06    0.82    1.00
  WS02006231WS02006230 CONDUIT    391.76     0  04:21      1.31    5.94    1.00
  WS02006230WS02006229 CONDUIT    402.12     0  04:21      1.04    8.95    1.00
  WS02006228WS02006109 CONDUIT    689.72     0  01:39      1.37    3.01    1.00
  WS02006116WS02004401 CONDUIT    679.76     0  01:49      0.90    0.94    0.99
  WS02006115WS02006116 CONDUIT    681.70     0  01:48      1.02    0.87    0.92
  WS02006113WS02006111 CONDUIT    706.29     0  01:39      2.66    0.85    0.55
  WS02006112WS02006115 CONDUIT    693.73     0  01:39      0.96    0.41    0.95
  WS02006111WS02006112 CONDUIT    679.29     0  01:40      1.82    0.32    0.73
  WS02006110WS02006113 CONDUIT    693.22     0  01:39      1.59    0.63    0.82
  WS02006109WS02006110 CONDUIT    690.95     0  01:39      1.37    1.33    1.00
  WS02004411WS02004412 CONDUIT    675.91     0  01:50      1.04    0.96    0.77
  WS02004401WS02004402 CONDUIT    678.23     0  01:47      0.86    0.81    1.00
  WS02004413WS02003067 CONDUIT    675.70     0  01:51      1.26    0.29    0.64
  WS02004412WS02004413 CONDUIT    676.11     0  01:50      0.96    0.45    0.84
  WS02004410WS02004411 CONDUIT    676.18     0  01:50      1.04    0.92    0.77
  WS02004409WS02004410 CONDUIT    677.13     0  01:48      1.10    0.88    0.77
  WS02004407WS02004409 CONDUIT    678.50     0  01:48      1.66    0.24    0.55
  WS02004406WS02004407 CONDUIT    679.12     0  01:47      1.22    0.30    0.67
  WS02004405WS02004406 CONDUIT    679.16     0  01:48      0.86    1.34    1.00
  WS02004404WS02004405 CONDUIT    678.95     0  01:48      0.86    6.65    1.00
  WS02004403WS02004404 CONDUIT    678.72     0  01:48      0.86    0.49    1.00
  WS02004402WS02004403 CONDUIT    678.30     0  01:48      0.86    0.97    1.00
  WS02004139WS02001211 CONDUIT    374.85     0  01:20      0.80    0.47    0.58
  WS02004138WS02004139 CONDUIT    379.46     0  01:20      3.34    0.08    0.43
  WS02003067WS02003066 CONDUIT    675.83     0  01:51      1.37    0.22    0.45
  WS02001213WS02003059 CONDUIT    377.06     0  03:22      0.80    0.62    0.75
  WS02001212WS02001213 CONDUIT    378.18     0  01:21      1.31    0.58    0.46
  WS02001211WS02001212 CONDUIT    378.77     0  01:21      0.77    0.29    0.64
  WS02003072WS02003073 CONDUIT    962.31     0  01:54      1.74    2.08    0.49
  WS02003069WS02003072 CONDUIT    962.02     0  01:54      1.63    0.46    0.52
  WS02003060WS02003069 CONDUIT    961.96     0  01:53      1.88    0.38    0.46
  WS02003059WS02003060 CONDUIT    377.27     0  03:22      0.93    0.25    0.66
  HS02004901HS02004770 CONDUIT     17.82     0  01:38      0.06    0.07    0.40
  HS02004876HS02004881 CONDUIT     67.33     0  01:43      0.89    0.72    0.11
  HS02004870HS02004876 CONDUIT     54.05     0  01:43      0.61    0.04    0.13
  HS02004842HS02004848 CONDUIT     10.09     0  01:58      0.05    0.01    0.30
  HS02004837HS02004842 CONDUIT     10.33     0  02:00      0.41    0.01    0.31
  HS02004830HS02004837 CONDUIT     38.21     0  01:51      0.54    0.04    0.10
  HS02004824HS02004830 CONDUIT     38.37     0  01:52      0.57    0.05    0.10
  HS02004817HS02004824 CONDUIT     71.73     0  01:54      0.22    0.03    0.46
  HS02004770HS02004777 CONDUIT     92.16     0  01:38      0.32    0.17    0.41
  HS02004799HS02004480 CONDUIT    230.85     0  01:40      0.78    0.29    0.42
  HS02004792HS02004799 CONDUIT    210.29     0  01:40      0.89    0.13    0.34
  HS02004788HS02004792 CONDUIT    122.00     0  01:40      1.02    0.08    0.17
  HS02004785HS02004788 CONDUIT     92.09     0  01:40      0.67    0.69    0.20
  HS02004777HS02004785 CONDUIT     91.99     0  01:39      0.39    0.11    0.34
  HS02004480HS02004478 CONDUIT    273.63     0  01:41      1.21    1.15    0.32
  HS02004479HS02004480 CONDUIT     43.48     0  01:42      0.30    0.04    0.41
  HS02004862HS02004870 CONDUIT     40.54     0  01:45      0.62    0.04    0.09
  HS02004848HS02004852 CONDUIT     17.93     0  01:51      0.42    0.02    0.06
  HS02004856HS02004862 CONDUIT     27.96     0  01:44      0.46    0.03    0.09
  HS02004852HS02004856 CONDUIT     17.92     0  01:52      0.22    0.02    0.12
  HS02004802HS02004478 CONDUIT     96.20     0  01:53      0.42    0.08    0.34
  HS02004478WS02006287 CONDUIT    366.22     0  01:42      1.67    0.10    0.24
  HS02004817HS02004807 CONDUIT     72.77     0  01:55      0.17    0.04    0.61
  HS02004807HS02004802 CONDUIT     95.92     0  01:53      0.36    0.18    0.39
  YS02001759YS02001757 CONDUIT    542.10     0  02:14      0.69    0.39    1.00
  YS02001762YS02001759 CONDUIT    280.16     0  02:14      0.36    0.32    1.00
  YS02001765YS02001762 CONDUIT    279.13     0  02:14      0.36    0.26    1.00
  YS02001770YS02001767 CONDUIT    276.37     0  02:14      0.42    1.09    1.00
  YS02001774YS02001770 CONDUIT    204.39     0  03:00      0.26    0.13    1.00
  YS02001779YS02001774 CONDUIT    204.58     0  03:00      0.26    0.10    1.00
  YS02001649YS02001757 CONDUIT    862.36     0  02:24      1.10    0.52    1.00
  YS02001767YS02001765 CONDUIT    277.96     0  02:14      0.38    0.35    1.00
  YS02006561YS02001783 CONDUIT    888.16     0  02:19      2.16    0.46    1.00
  YS02001783YS02001784 CONDUIT    888.05     0  02:19      1.77    1.22    1.00
  YS02001784YS02001785 CONDUIT    888.15     0  02:18      1.88    2.07    1.00
  YS02001788YS02001790 CONDUIT    887.38     0  02:18      2.43    0.65    1.00
  YS02001790YS02001791 CONDUIT    933.45     0  02:17      3.06    1.02    1.00
  YS02001791YS02001793 CONDUIT    889.31     0  02:14      6.04    0.38    1.00
  YS02001910YS02001907 CONDUIT    320.09     0  03:04      0.49    0.18    1.00
  YS02001786YS02001788 CONDUIT    887.00     0  02:18      2.31    1.71    1.00
  YS02001915YS02001910 CONDUIT    320.02     0  03:04      0.58    0.16    1.00
  YS02001918YS02001915 CONDUIT    144.57     0  03:05      0.44    0.08    0.96
  YS02001923YS02001920 CONDUIT    140.72     0  02:43      0.68    0.06    0.85
  YS02001926YS02001923 CONDUIT    119.95     0  02:49      0.78    0.17    0.53
  YS02001929YS02001926 CONDUIT    135.45     0  02:50      0.83    0.06    0.42
  YS02001920YS02001918 CONDUIT    153.53     0  02:51      0.67    0.15    0.95
  YS02001629YS02163301 CONDUIT    225.21     0  02:05      0.29    0.28    1.00
  YS02001619YS02001622 CONDUIT    206.01     0  02:00      0.73    0.30    1.00
  YS02001622YS02001625 CONDUIT    225.93     0  01:59      0.36    0.12    1.00
  YS02001625YS02001629 CONDUIT    225.98     0  01:59      0.30    0.11    1.00
  YS02163301YS02001633 CONDUIT    225.08     0  02:05      0.29    0.21    1.00
  YS02163601YS02164001 CONDUIT    417.91     0  02:07      0.53    0.37    1.00
  YS02164001YS02001641 CONDUIT    417.76     0  02:07      0.53    0.57    1.00
  YS02001641YS02001644 CONDUIT    417.35     0  02:07      0.53    1.35    1.00
  YS02001647YS02001649 CONDUIT    618.06     0  02:25      0.79    0.33    1.00
  YS02006553YS02006556 CONDUIT    605.22     0  02:38      0.77    0.52    1.00
  YS02006556YS02006558 CONDUIT    605.12     0  02:39      0.77    0.48    1.00
  YSB6556YSB1171       CONDUIT     24.43     0  01:43      0.09    0.03    0.68
  YS02001907YS02006553 CONDUIT    605.39     0  02:39      0.67    0.71    1.00
  YS02006558YS02006561 CONDUIT    889.31     0  02:19      3.47    1.97    1.00
  YS02001633YS02163601 CONDUIT    417.85     0  02:07      0.53    0.44    1.00
  YS02001644YS02001647 CONDUIT    617.91     0  02:25      0.79    0.36    1.00
  YS02001745YS02001748 CONDUIT    591.50     0  02:11      1.64    0.23    0.93
  YS02001748YS02001751 CONDUIT    485.53     0  01:58      1.23    0.25    1.00
  YS02001751YS02001754 CONDUIT    251.79     0  02:11      1.05    0.12    1.00
  YS02001754YS02001757 CONDUIT    252.18     0  02:11      0.33    0.10    1.00
  YS02001882YS02001884 CONDUIT     22.95     0  02:23      0.15    0.03    1.00
  YS02001884YS02001887 CONDUIT     34.37     0  02:21      0.11    0.05    1.00
  YS02001890YS02001895 CONDUIT    340.23     0  02:24      0.47    0.16    1.00
  YS02001895YS02001898 CONDUIT    344.29     0  02:24      0.60    0.60    1.00
  YS02001898YS02001901 CONDUIT    337.37     0  02:25      0.52    0.22    1.00
  YS02001901YS02001904 CONDUIT    336.67     0  02:25      0.47    0.52    1.00
  YS02001904YS02001907 CONDUIT    336.02     0  02:25      0.43    0.12    1.00
  YS02001887YS02001890 CONDUIT    338.60     0  02:24      0.43    0.58    1.00
  YS02001652YS02001649 CONDUIT    295.67     0  02:05      0.61    0.15    1.00
  YS02001655YS02001652 CONDUIT    295.26     0  02:05      1.11    0.14    1.00
  YS02001658YS02001655 CONDUIT    474.81     0  02:04      1.42    0.20    1.00
  YS02001661YS02001658 CONDUIT    642.40     0  02:08      1.73    0.25    1.00
  YS02001664YS02001661 CONDUIT    637.24     0  02:29      1.62    0.20    0.71
  YSB1154YSB6556       CONDUIT     24.02     0  01:41      0.16    0.04    0.57
  YSB1174YSB1171       CONDUIT     20.02     0  01:36      0.07    0.03    0.68
  YSB1171HS02004479    CONDUIT     43.17     0  01:41      0.54    0.03    0.54
  HS02004881HS02006253 CONDUIT     74.61     0  01:43      2.03    0.01    0.32
  YS02001793JiankangQianchi CONDUIT    876.94     0  02:36     16.40    0.07    1.00
  YS02001757CaochengTiaoxuchi CONDUIT   1599.24     0  02:25      2.71    0.70    1.00
  WSF200WS02003060     CONDUIT    675.66     0  01:51      1.88    0.15    0.37
  1                    CONDUIT    964.44     0  01:55      3.29    0.34    0.40
  2                    CONDUIT    255.99     0  01:41      6.20    0.61    0.57
  3                    CONDUIT    597.65     0  00:00     10.05    0.95    0.86
  4                    CONDUIT      0.00     0  00:00      0.00    0.00    0.00
  CC-Pump-1            PUMP       200.00     0  01:35              1.00
  CC-Pump-2            PUMP       200.00     0  01:35              1.00
  JK-Pump-1            PUMP       300.00     0  00:00              1.00
  JK-Pump-2            PUMP       300.00     0  00:00              1.00
  XR-Pump-1            PUMP        95.00     0  00:00              1.00
  XR-Pump-2            PUMP        95.00     0  00:00              1.00
  XR-Pump-3            PUMP        95.00     0  00:00              1.00
  XR-Pump-4            PUMP        95.00     0  02:10              1.00
  
  
  ***************************
  Flow Classification Summary
  ***************************
  
  -------------------------------------------------------------------------------------
                      Adjusted    ---------- Fraction of Time in Flow Class ---------- 
                       /Actual         Up    Down  Sub   Sup   Up    Down  Norm  Inlet 
  Conduit               Length    Dry  Dry   Dry   Crit  Crit  Crit  Crit  Ltd   Ctrl  
  -------------------------------------------------------------------------------------
  WS02003066WSF200        1.00   0.03  0.03  0.00  0.00  0.94  0.00  0.00  0.58  0.00
  WS02006287WS02006284    1.00   0.03  0.01  0.00  0.58  0.38  0.00  0.00  0.72  0.00
  WS02006284WS02006280    1.00   0.03  0.00  0.00  0.00  0.00  0.00  0.97  0.00  0.00
  WS02006280WS02006229    1.00   0.03  0.00  0.00  0.00  0.00  0.00  0.97  0.00  0.00
  WS02006229WS02006228    1.00   0.00  0.00  0.00  0.99  0.00  0.00  0.01  0.00  0.00
  WS02006256WS02006235    1.00   0.00  0.00  0.00  1.00  0.00  0.00  0.00  0.00  0.00
  WS02006253WS02006251    1.00   0.02  0.01  0.00  0.97  0.00  0.00  0.00  0.00  0.00
  WS02006252WS02006251    1.00   0.05  0.00  0.00  0.00  0.00  0.95  0.00  0.00  0.00
  WS02006251WS02006249    1.00   0.00  0.00  0.00  1.00  0.00  0.00  0.00  0.16  0.00
  WS02006249WS02006248    1.00   0.00  0.01  0.00  0.96  0.00  0.03  0.00  0.00  0.00
  WS02006248WS02006247    1.00   0.01  0.00  0.00  0.98  0.00  0.00  0.01  0.05  0.00
  WS02006247WS02006245    1.00   0.02  0.00  0.00  0.97  0.00  0.00  0.01  0.00  0.00
  WS02006245WS02006243    1.00   0.01  0.00  0.00  0.96  0.00  0.00  0.02  0.01  0.00
  WS02006243WS02006242    1.00   0.01  0.00  0.00  0.99  0.00  0.00  0.00  0.16  0.00
  WS02006242WS02006240    1.00   0.00  0.00  0.00  0.99  0.00  0.00  0.00  0.00  0.00
  WS02006240WS02006239    1.00   0.00  0.00  0.00  0.97  0.00  0.00  0.02  0.01  0.00
  WS02006239WS02006238    1.00   0.00  0.00  0.00  1.00  0.00  0.00  0.00  0.00  0.00
  WS02006238WS02006235    1.00   0.00  0.00  0.00  1.00  0.00  0.00  0.00  0.00  0.00
  WS02006235WS02006234    1.00   0.00  0.00  0.00  0.97  0.00  0.03  0.00  0.00  0.00
  WS02006234WS02006232    1.00   0.00  0.00  0.00  1.00  0.00  0.00  0.00  0.00  0.00
  WS02006232WS02006231    1.00   0.00  0.00  0.00  0.99  0.00  0.00  0.00  0.00  0.00
  WS02006231WS02006230    1.00   0.00  0.00  0.00  0.95  0.00  0.05  0.00  0.00  0.00
  WS02006230WS02006229    1.00   0.00  0.00  0.00  0.99  0.00  0.00  0.01  0.01  0.00
  WS02006228WS02006109    1.00   0.00  0.00  0.00  1.00  0.00  0.00  0.00  0.00  0.00
  WS02006116WS02004401    1.00   0.02  0.00  0.00  0.98  0.00  0.00  0.00  0.00  0.00
  WS02006115WS02006116    1.00   0.02  0.00  0.00  0.97  0.00  0.00  0.01  0.01  0.00
  WS02006113WS02006111    1.00   0.01  0.00  0.00  0.00  0.99  0.00  0.00  0.08  0.00
  WS02006112WS02006115    1.00   0.01  0.00  0.00  0.98  0.00  0.00  0.00  0.00  0.00
  WS02006111WS02006112    1.00   0.01  0.00  0.00  0.98  0.00  0.00  0.00  0.91  0.00
  WS02006110WS02006113    1.00   0.01  0.00  0.00  0.99  0.00  0.00  0.00  0.00  0.00
  WS02006109WS02006110    1.00   0.00  0.01  0.00  0.99  0.00  0.00  0.00  0.00  0.00
  WS02004411WS02004412    1.00   0.04  0.00  0.00  0.96  0.00  0.00  0.00  0.00  0.00
  WS02004401WS02004402    1.00   0.02  0.00  0.00  0.98  0.00  0.00  0.00  0.00  0.00
  WS02004413WS02003067    1.00   0.04  0.01  0.00  0.00  0.00  0.95  0.00  0.00  0.00
  WS02004412WS02004413    1.00   0.04  0.00  0.00  0.96  0.00  0.00  0.00  0.00  0.00
  WS02004410WS02004411    1.00   0.04  0.00  0.00  0.96  0.00  0.00  0.00  0.00  0.00
  WS02004409WS02004410    1.00   0.04  0.00  0.00  0.96  0.00  0.00  0.00  0.00  0.00
  WS02004407WS02004409    1.00   0.04  0.00  0.00  0.95  0.01  0.00  0.00  0.81  0.00
  WS02004406WS02004407    1.00   0.00  0.04  0.00  0.96  0.00  0.00  0.00  0.00  0.00
  WS02004405WS02004406    1.00   0.00  0.00  0.00  1.00  0.00  0.00  0.00  0.02  0.00
  WS02004404WS02004405    1.00   0.00  0.00  0.00  1.00  0.00  0.00  0.00  0.00  0.00
  WS02004403WS02004404    1.00   0.00  0.02  0.00  0.98  0.00  0.00  0.00  0.02  0.00
  WS02004402WS02004403    1.00   0.02  0.00  0.00  0.98  0.00  0.00  0.00  0.00  0.00
  WS02004139WS02001211    1.00   0.00  0.00  0.00  1.00  0.00  0.00  0.00  0.00  0.00
  WS02004138WS02004139    1.00   0.00  0.00  0.00  0.99  0.01  0.00  0.00  1.00  0.00
  WS02003067WS02003066    1.00   0.05  0.00  0.00  0.94  0.00  0.00  0.00  0.00  0.00
  WS02001213WS02003059    1.00   0.00  0.00  0.00  0.99  0.00  0.00  0.00  0.00  0.00
  WS02001212WS02001213    1.00   0.00  0.00  0.00  0.93  0.00  0.07  0.00  0.00  0.00
  WS02001211WS02001212    1.00   0.00  0.00  0.00  1.00  0.00  0.00  0.00  0.00  0.00
  WS02003072WS02003073    1.00   0.00  0.00  0.00  0.00  0.00  0.00  1.00  0.00  0.00
  WS02003069WS02003072    1.00   0.00  0.00  0.00  0.99  0.01  0.00  0.00  0.16  0.00
  WS02003060WS02003069    1.00   0.00  0.00  0.00  0.99  0.01  0.00  0.00  0.07  0.00
  WS02003059WS02003060    1.00   0.00  0.00  0.00  1.00  0.00  0.00  0.00  0.01  0.00
  HS02004901HS02004770    1.00   0.03  0.00  0.00  0.97  0.00  0.00  0.00  0.00  0.00
  HS02004876HS02004881    1.00   0.01  0.00  0.00  0.90  0.09  0.00  0.00  0.00  0.00
  HS02004870HS02004876    1.00   0.01  0.00  0.00  0.99  0.00  0.00  0.00  0.95  0.00
  HS02004842HS02004848    1.00   0.00  0.03  0.00  0.97  0.00  0.00  0.00  0.59  0.00
  HS02004837HS02004842    1.00   0.00  0.00  0.00  0.99  0.01  0.00  0.00  0.11  0.00
  HS02004830HS02004837    1.00   0.00  0.00  0.00  1.00  0.00  0.00  0.00  0.99  0.00
  HS02004824HS02004830    1.00   0.00  0.00  0.00  1.00  0.00  0.00  0.00  0.00  0.00
  HS02004817HS02004824    1.00   0.00  0.00  0.00  1.00  0.00  0.00  0.00  1.00  0.00
  HS02004770HS02004777    1.00   0.00  0.03  0.00  0.97  0.00  0.00  0.00  0.02  0.00
  HS02004799HS02004480    1.00   0.00  0.01  0.00  0.97  0.00  0.02  0.00  0.00  0.00
  HS02004792HS02004799    1.00   0.00  0.00  0.00  0.99  0.01  0.00  0.00  0.98  0.00
  HS02004788HS02004792    1.00   0.00  0.00  0.00  0.99  0.01  0.00  0.00  0.98  0.00
  HS02004785HS02004788    1.00   0.00  0.00  0.00  1.00  0.00  0.00  0.00  0.00  0.00
  HS02004777HS02004785    1.00   0.00  0.00  0.00  1.00  0.00  0.00  0.00  0.12  0.00
  HS02004480HS02004478    1.00   0.03  0.00  0.00  0.64  0.00  0.00  0.33  0.00  0.00
  HS02004479HS02004480    1.00   0.02  0.00  0.00  0.98  0.00  0.00  0.00  0.11  0.00
  HS02004862HS02004870    1.00   0.00  0.00  0.00  1.00  0.00  0.00  0.00  0.03  0.00
  HS02004848HS02004852    1.00   0.03  0.00  0.00  0.97  0.00  0.00  0.00  0.78  0.00
  HS02004856HS02004862    1.00   0.00  0.03  0.00  0.97  0.00  0.00  0.00  0.83  0.00
  HS02004852HS02004856    1.00   0.03  0.00  0.00  0.97  0.00  0.00  0.00  0.86  0.00
  HS02004802HS02004478    1.00   0.03  0.00  0.00  0.97  0.00  0.00  0.00  0.02  0.00
  HS02004478WS02006287    1.00   0.03  0.00  0.00  0.74  0.22  0.00  0.00  0.69  0.00
  HS02004817HS02004807    1.00   0.00  0.03  0.00  0.97  0.00  0.00  0.00  0.01  0.00
  HS02004807HS02004802    1.00   0.03  0.00  0.00  0.97  0.00  0.00  0.00  0.00  0.00
  YS02001759YS02001757    1.00   0.00  0.00  0.00  1.00  0.00  0.00  0.00  0.16  0.00
  YS02001762YS02001759    1.00   0.00  0.00  0.00  1.00  0.00  0.00  0.00  0.03  0.00
  YS02001765YS02001762    1.00   0.00  0.00  0.00  1.00  0.00  0.00  0.00  0.13  0.00
  YS02001770YS02001767    1.00   0.00  0.00  0.00  1.00  0.00  0.00  0.00  0.00  0.00
  YS02001774YS02001770    1.00   0.00  0.03  0.00  0.97  0.00  0.00  0.00  0.03  0.00
  YS02001779YS02001774    1.00   0.00  0.00  0.00  1.00  0.00  0.00  0.00  0.17  0.00
  YS02001649YS02001757    1.00   0.00  0.00  0.00  1.00  0.00  0.00  0.00  0.16  0.00
  YS02001767YS02001765    1.00   0.00  0.00  0.00  1.00  0.00  0.00  0.00  0.00  0.00
  YS02006561YS02001783    1.00   0.04  0.00  0.00  0.29  0.67  0.00  0.00  0.51  0.00
  YS02001783YS02001784    1.00   0.00  0.04  0.00  0.96  0.00  0.00  0.00  0.00  0.00
  YS02001784YS02001785    1.00   0.00  0.00  0.00  1.00  0.00  0.00  0.00  0.16  0.00
  YS02001788YS02001790    1.00   0.00  0.00  0.00  0.27  0.73  0.00  0.00  0.50  0.00
  YS02001790YS02001791    1.00   0.00  0.00  0.00  0.25  0.75  0.00  0.00  0.57  0.00
  YS02001791YS02001793    1.00   0.00  0.00  0.00  0.26  0.74  0.00  0.00  0.01  0.00
  YS02001910YS02001907    1.00   0.00  0.00  0.00  0.98  0.00  0.00  0.01  0.12  0.00
  YS02001786YS02001788    1.00   0.00  0.00  0.00  0.26  0.74  0.00  0.00  0.00  0.00
  YS02001915YS02001910    1.00   0.00  0.00  0.00  1.00  0.00  0.00  0.00  0.14  0.00
  YS02001918YS02001915    1.00   0.00  0.01  0.00  0.99  0.00  0.00  0.00  0.58  0.00
  YS02001923YS02001920    1.00   0.00  0.00  0.00  1.00  0.00  0.00  0.00  0.83  0.00
  YS02001926YS02001923    1.00   0.00  0.02  0.00  0.13  0.00  0.85  0.00  0.00  0.00
  YS02001929YS02001926    1.00   0.00  0.03  0.00  0.97  0.00  0.00  0.00  0.82  0.00
  YS02001920YS02001918    1.00   0.00  0.01  0.00  0.99  0.00  0.00  0.00  0.00  0.00
  YS02001629YS02163301    1.00   0.03  0.00  0.00  0.97  0.00  0.00  0.00  0.00  0.00
  YS02001619YS02001622    1.00   0.03  0.00  0.00  0.97  0.00  0.00  0.00  0.00  0.00
  YS02001622YS02001625    1.00   0.03  0.00  0.00  0.97  0.00  0.00  0.00  0.04  0.00
  YS02001625YS02001629    1.00   0.03  0.01  0.00  0.95  0.00  0.01  0.00  0.00  0.00
  YS02163301YS02001633    1.00   0.00  0.03  0.00  0.97  0.00  0.00  0.00  0.00  0.00
  YS02163601YS02164001    1.00   0.00  0.02  0.00  0.98  0.00  0.00  0.00  0.00  0.00
  YS02164001YS02001641    1.00   0.01  0.01  0.00  0.98  0.00  0.00  0.00  0.06  0.00
  YS02001641YS02001644    1.00   0.00  0.01  0.00  0.99  0.00  0.00  0.00  0.00  0.00
  YS02001647YS02001649    1.00   0.00  0.03  0.00  0.96  0.00  0.00  0.00  0.01  0.00
  YS02006553YS02006556    1.00   0.01  0.00  0.00  0.99  0.00  0.00  0.00  0.03  0.00
  YS02006556YS02006558    1.00   0.00  0.00  0.00  1.00  0.00  0.00  0.00  0.00  0.00
  YSB6556YSB1171          1.00   0.02  0.01  0.00  0.97  0.00  0.00  0.00  0.00  0.00
  YS02001907YS02006553    1.00   0.00  0.01  0.00  0.98  0.00  0.00  0.00  0.00  0.00
  YS02006558YS02006561    1.00   0.04  0.00  0.00  0.16  0.81  0.00  0.00  0.49  0.00
  YS02001633YS02163601    1.00   0.00  0.01  0.00  0.99  0.00  0.00  0.00  0.15  0.00
  YS02001644YS02001647    1.00   0.00  0.04  0.00  0.96  0.00  0.00  0.00  0.00  0.00
  YS02001745YS02001748    1.00   0.00  0.00  0.00  0.93  0.00  0.00  0.07  0.03  0.00
  YS02001748YS02001751    1.00   0.00  0.00  0.00  0.98  0.02  0.00  0.00  0.14  0.00
  YS02001751YS02001754    1.00   0.00  0.00  0.00  0.96  0.00  0.00  0.04  0.01  0.00
  YS02001754YS02001757    1.00   0.00  0.00  0.00  0.99  0.01  0.00  0.00  0.17  0.00
  YS02001882YS02001884    1.00   0.03  0.00  0.00  0.97  0.00  0.00  0.00  0.00  0.00
  YS02001884YS02001887    1.00   0.02  0.01  0.00  0.97  0.00  0.00  0.00  0.00  0.00
  YS02001890YS02001895    1.00   0.00  0.03  0.00  0.97  0.00  0.00  0.00  0.00  0.00
  YS02001895YS02001898    1.00   0.03  0.00  0.00  0.96  0.00  0.00  0.00  0.00  0.00
  YS02001898YS02001901    1.00   0.03  0.00  0.00  0.97  0.00  0.00  0.00  0.01  0.00
  YS02001901YS02001904    1.00   0.03  0.00  0.00  0.97  0.00  0.00  0.00  0.00  0.00
  YS02001904YS02001907    1.00   0.00  0.03  0.00  0.97  0.00  0.00  0.00  0.00  0.00
  YS02001887YS02001890    1.00   0.00  0.00  0.00  0.98  0.00  0.01  0.00  0.00  0.00
  YS02001652YS02001649    1.00   0.00  0.00  0.00  1.00  0.00  0.00  0.00  0.15  0.00
  YS02001655YS02001652    1.00   0.00  0.00  0.00  0.96  0.00  0.00  0.04  0.01  0.00
  YS02001658YS02001655    1.00   0.00  0.03  0.00  0.95  0.02  0.00  0.00  0.02  0.00
  YS02001661YS02001658    1.00   0.03  0.00  0.00  0.93  0.04  0.00  0.00  0.02  0.00
  YS02001664YS02001661    1.00   0.03  0.00  0.00  0.89  0.08  0.00  0.00  0.17  0.00
  YSB1154YSB6556          1.00   0.03  0.00  0.00  0.97  0.00  0.00  0.00  0.01  0.00
  YSB1174YSB1171          1.00   0.02  0.01  0.00  0.98  0.00  0.00  0.00  0.00  0.00
  YSB1171HS02004479       1.00   0.02  0.00  0.00  0.98  0.00  0.00  0.00  0.10  0.00
  HS02004881HS02006253    1.00   0.02  0.00  0.00  0.95  0.00  0.00  0.03  0.80  0.00
  YS02001793JiankangQianchi    1.00   0.00  0.00  0.00  0.38  0.62  0.00  0.00  0.10  0.00
  YS02001757CaochengTiaoxuchi    1.00   0.00  0.05  0.00  0.89  0.06  0.00  0.00  0.00  0.00
  WSF200WS02003060        1.00   0.00  0.03  0.00  0.84  0.13  0.00  0.00  0.08  0.00
  1                       1.00   0.00  0.00  0.00  0.00  1.00  0.00  0.00  0.26  0.00
  2                       1.00   0.19  0.00  0.00  0.00  0.81  0.00  0.00  0.11  0.00
  3                       1.00   0.03  0.00  0.00  0.00  0.97  0.00  0.00  0.00  0.00
  4                       1.00   1.00  0.00  0.00  0.00  0.00  0.00  0.00  0.00  0.00
  
  
  *************************
  Conduit Surcharge Summary
  *************************
  
  ----------------------------------------------------------------------------
                                                           Hours        Hours 
                         --------- Hours Full --------   Above Full   Capacity
  Conduit                Both Ends  Upstream  Dnstream   Normal Flow   Limited
  ----------------------------------------------------------------------------
  WS02006229WS02006228        5.02      5.35      5.02      6.30         5.02
  WS02006256WS02006235        6.36      6.36      7.83      1.88         0.01
  WS02006253WS02006251        0.28      0.28      0.44      0.01         0.01
  WS02006252WS02006251        3.98      3.98      5.29      4.95         0.01
  WS02006251WS02006249        0.01      0.35      0.01      4.10         0.01
  WS02006249WS02006248        0.01      0.01      0.01      6.25         0.01
  WS02006248WS02006247        0.01      0.01      0.38      0.01         0.01
  WS02006247WS02006245        0.37      0.44      0.37      6.25         0.37
  WS02006245WS02006243        0.40      0.40      0.87      0.03         0.01
  WS02006243WS02006242        1.00      1.00      4.48      0.01         0.01
  WS02006242WS02006240        1.50      1.50      4.91      4.80         0.01
  WS02006240WS02006239        2.38      2.38      2.69      0.01         0.01
  WS02006239WS02006238        4.81      4.81      4.96      0.01         0.01
  WS02006238WS02006235        4.81      4.81      5.31      0.01         0.01
  WS02006235WS02006234        1.54      1.54      4.60      6.38         0.01
  WS02006234WS02006232        2.55      2.55      5.43      0.01         0.01
  WS02006232WS02006231        0.95      0.95      5.43      0.01         0.01
  WS02006231WS02006230        0.55      0.55      1.02      6.34         0.01
  WS02006230WS02006229        6.09      6.28      6.09      6.41         6.08
  WS02006228WS02006109        5.18      5.86      5.18      6.32         5.18
  WS02006112WS02006115        0.01      0.01      1.56      0.01         0.01
  WS02006111WS02006112        0.01      0.01      6.25      0.01         0.01
  WS02006110WS02006113        0.01      0.01      5.63      0.01         0.01
  WS02006109WS02006110        1.13      1.13      5.86      1.13         0.01
  WS02004401WS02004402        0.01      0.01      0.08      0.01         0.01
  WS02004406WS02004407        0.01      0.01      0.44      0.01         0.01
  WS02004405WS02004406        0.44      0.50      0.44      1.41         0.44
  WS02004404WS02004405        0.50      0.61      0.50      6.32         0.50
  WS02004403WS02004404        0.13      0.13      0.61      0.01         0.01
  WS02004402WS02004403        0.08      0.08      0.13      0.01         0.01
  WS02003072WS02003073        0.01      0.01      0.01      6.12         0.01
  HS02004480HS02004478        0.01      0.01      0.01      0.41         0.01
  YS02001759YS02001757        6.15      6.15      6.19      0.01         0.01
  YS02001762YS02001759        6.14      6.14      6.15      0.01         0.01
  YS02001765YS02001762        6.13      6.13      6.14      0.01         0.01
  YS02001770YS02001767        6.12      6.13      6.12      0.56         0.95
  YS02001774YS02001770        6.11      6.11      6.14      0.01         0.01
  YS02001779YS02001774        5.97      5.97      6.14      0.01         0.01
  YS02001649YS02001757        6.15      6.15      6.19      0.01         0.01
  YS02001767YS02001765        6.12      6.12      6.13      0.01         0.01
  YS02006561YS02001783        0.37      0.37      1.22      0.01         0.01
  YS02001783YS02001784        1.11      1.22      1.14      1.38         0.91
  YS02001784YS02001785        1.10      1.14      1.10      2.21         1.10
  YS02001788YS02001790        1.10      1.10      1.29      0.01         0.01
  YS02001790YS02001791        1.29      1.29      1.34      0.01         0.01
  YS02001791YS02001793        1.34      1.34      1.51      0.01         0.01
  YS02001910YS02001907        1.11      1.11      1.69      0.01         0.01
  YS02001786YS02001788        1.10      1.10      1.10      1.90         1.10
  YS02001915YS02001910        0.67      0.67      1.11      0.01         0.01
  YS02001918YS02001915        0.01      0.01      0.67      0.01         0.01
  YS02001629YS02163301        6.10      6.10      6.11      0.01         0.01
  YS02001619YS02001622        5.75      5.75      5.79      0.01         0.01
  YS02001622YS02001625        5.79      5.79      6.09      0.01         0.01
  YS02001625YS02001629        5.74      5.74      6.09      0.01         0.01
  YS02163301YS02001633        6.11      6.11      6.12      0.01         0.01
  YS02163601YS02164001        6.12      6.12      6.15      0.01         0.01
  YS02164001YS02001641        6.12      6.12      6.13      0.01         0.02
  YS02001641YS02001644        6.13      6.13      6.13      1.41         1.52
  YS02001647YS02001649        6.06      6.06      6.15      0.01         0.01
  YS02006553YS02006556        1.42      1.42      1.73      0.01         0.01
  YS02006556YS02006558        1.58      1.58      1.80      0.01         0.01
  YS02001907YS02006553        2.23      2.23      2.41      0.01         0.01
  YS02006558YS02006561        0.81      1.37      0.81      2.09         0.81
  YS02001633YS02163601        6.12      6.12      6.15      0.01         0.01
  YS02001644YS02001647        6.06      6.06      6.13      0.01         0.01
  YS02001745YS02001748        0.01      0.01      4.88      0.01         0.01
  YS02001748YS02001751        5.25      5.25      5.72      0.01         0.01
  YS02001751YS02001754        5.72      5.72      5.98      0.01         0.01
  YS02001754YS02001757        6.04      6.04      6.19      0.01         0.01
  YS02001882YS02001884        0.68      0.68      0.74      0.01         0.01
  YS02001884YS02001887        0.81      0.81      0.94      0.01         0.01
  YS02001890YS02001895        0.63      0.63      1.16      0.01         0.01
  YS02001895YS02001898        0.61      0.61      0.63      0.01         0.01
  YS02001898YS02001901        0.65      0.65      0.81      0.01         0.01
  YS02001901YS02001904        0.78      0.78      0.81      0.01         0.01
  YS02001904YS02001907        0.78      0.78      1.76      0.01         0.01
  YS02001887YS02001890        1.03      1.03      1.09      0.01         0.01
  YS02001652YS02001649        6.06      6.06      6.15      0.01         0.01
  YS02001655YS02001652        5.76      5.76      6.04      0.01         0.01
  YS02001658YS02001655        4.97      4.97      5.76      0.01         0.01
  YS02001661YS02001658        0.19      0.19      4.97      0.01         0.01
  YS02001664YS02001661        0.01      0.01      0.93      0.01         0.01
  YS02001793JiankangQianchi        1.46      1.46      2.21      0.01         0.01
  YS02001757CaochengTiaoxuchi        5.26      5.26      6.19      0.01         0.01
  3                           0.01      0.01      0.01      0.01         0.01
  
  
  ***************
  Pumping Summary
  ***************
  
  ---------------------------------------------------------------------------------------------------------
                                                  Min       Avg       Max     Total     Power    % Time Off
                        Percent   Number of      Flow      Flow      Flow    Volume     Usage    Pump Curve
  Pump                 Utilized   Start-Ups       LPS       LPS       LPS  10^6 ltr     Kw-hr    Low   High
  ---------------------------------------------------------------------------------------------------------
  CC-Pump-1               80.38           1      0.00    199.04    200.00     4.510      7.69    0.0    7.7
  CC-Pump-2               76.12           5      0.00    151.45    200.00     3.310      6.29    0.0    8.1
  JK-Pump-1              100.00           1      0.00    227.75    300.00     5.209     72.03    0.0    0.0
  JK-Pump-2              100.00           1      0.00    227.75    300.00     5.209     72.03    0.0    0.0
  XR-Pump-1              100.00           1      0.00     95.00     95.00     2.679     22.81    0.0    0.0
  XR-Pump-2              100.00           1      0.00     95.00     95.00     2.679     22.81    0.0    0.0
  XR-Pump-3               93.61           5      0.00     78.48     95.00     2.052     16.73    0.0    0.0
  XR-Pump-4               27.65           6      0.00     52.64     95.00     0.399      3.86    0.0    0.0
  

  Analysis begun on:  Mon Jan  3 20:27:22 2022
  Analysis ended on:  Mon Jan  3 20:27:26 2022
  Total elapsed time: 00:00:04