
  EPA STORM WATER MANAGEMENT MODEL - VERSION 5.1 (Build 5.3.0.dev0)
  --------------------------------------------------------------

  WARNING 04: minimum elevation drop used for Conduit WS02004404WS02004405
  WARNING 03: negative offset ignored for Link YS02001904YS02001907
  
  *********************************************************
  NOTE: The summary statistics displayed in this report are
  based on results found at every computational time step,  
  not just on results from each reporting time step.
  *********************************************************
  
  ****************
  Analysis Options
  ****************
  Flow Units ............... LPS
  Process Models:
    Rainfall/Runoff ........ YES
    RDII ................... NO
    Snowmelt ............... NO
    Groundwater ............ NO
    Flow Routing ........... YES
    Ponding Allowed ........ NO
    Water Quality .......... NO
  Infiltration Method ...... HORTON
  Flow Routing Method ...... DYNWAVE
  Surcharge Method ......... EXTRAN
  Starting Date ............ 08/28/2015 08:00:00
  Ending Date .............. 08/28/2015 15:50:00
  Antecedent Dry Days ...... 8.0
  Report Time Step ......... 00:01:00
  Wet Time Step ............ 00:01:00
  Dry Time Step ............ 00:01:00
  Routing Time Step ........ 5.00 sec
  Variable Time Step ....... YES
  Maximum Trials ........... 8
  Number of Threads ........ 4
  Head Tolerance ........... 0.001500 m
  
  
  **************************        Volume         Depth
  Runoff Quantity Continuity     hectare-m            mm
  **************************     ---------       -------
  Total Precipitation ......         3.868         8.469
  Evaporation Loss .........         0.000         0.000
  Infiltration Loss ........         0.985         2.157
  Surface Runoff ...........         1.916         4.194
  Final Storage ............         0.968         2.119
  Continuity Error (%) .....        -0.017
  
  
  **************************        Volume        Volume
  Flow Routing Continuity        hectare-m      10^6 ltr
  **************************     ---------     ---------
  Dry Weather Inflow .......         0.616         6.165
  Wet Weather Inflow .......         1.915        19.148
  Groundwater Inflow .......         0.000         0.000
  RDII Inflow ..............         0.000         0.000
  External Inflow ..........         0.102         1.024
  External Outflow .........         2.347        23.466
  Flooding Loss ............         0.032         0.321
  Evaporation Loss .........         0.000         0.000
  Exfiltration Loss ........         0.000         0.000
  Initial Stored Volume ....         0.076         0.761
  Final Stored Volume ......         0.542         5.419
  Continuity Error (%) .....        -7.785
  
  
  *************************
  Highest Continuity Errors
  *************************
  Node YS02001774 (42.67%)
  Node JK-storage (-36.38%)
  Node HS02004842 (20.90%)
  Node YS02001884 (13.72%)
  Node YSB1171 (4.66%)
  
  
  ***************************
  Time-Step Critical Elements
  ***************************
  Link 3 (60.60%)
  Link WS02006252WS02006251 (31.19%)
  Link WS02006238WS02006235 (3.25%)
  Link WS02006280WS02006229 (1.31%)
  
  
  ********************************
  Highest Flow Instability Indexes
  ********************************
  Link WS02006113WS02006111 (30)
  Link YS02001779YS02001774 (29)
  Link YS02001774YS02001770 (27)
  Link WS02006252WS02006251 (25)
  Link WS02006111WS02006112 (25)
  
  
  *************************
  Routing Time Step Summary
  *************************
  Minimum Time Step           :     0.50 sec
  Average Time Step           :     0.75 sec
  Maximum Time Step           :     5.00 sec
  Percent in Steady State     :    -0.00
  Average Iterations per Step :     4.24
  Percent Not Converging      :    24.44
  
  
  ***************************
  Subcatchment Runoff Summary
  ***************************
  
  ------------------------------------------------------------------------------------------------------------------------------
                            Total      Total      Total      Total     Imperv       Perv      Total       Total     Peak  Runoff
                           Precip      Runon       Evap      Infil     Runoff     Runoff     Runoff      Runoff   Runoff   Coeff
  Subcatchment                 mm         mm         mm         mm         mm         mm         mm    10^6 ltr      LPS
  ------------------------------------------------------------------------------------------------------------------------------
  sub0                       8.47       0.00       0.00       0.59       6.61       0.00       6.61        0.01     1.03   0.781
  sub1                       8.47       0.00       0.00       0.93       6.28       0.00       6.28        0.04     7.43   0.741
  sub2                       8.47       0.00       0.00       3.13       4.43       0.00       4.43        0.04     7.08   0.523
  sub3                       8.47       0.00       0.00       3.13       4.39       0.00       4.39        0.10    15.91   0.518
  sub4                       8.47       0.00       0.00       0.93       6.13       0.00       6.13        0.13    19.23   0.724
  sub5                       8.47       0.00       0.00       0.59       6.56       0.00       6.56        0.07    13.22   0.775
  sub7                       8.47       0.00       0.00       0.76       6.45       0.00       6.45        0.02     4.04   0.762
  sub8                       8.47       0.00       0.00       0.76       6.44       0.00       6.44        0.04     7.54   0.761
  sub9                       8.47       0.00       0.00       0.76       6.44       0.00       6.44        0.03     5.65   0.760
  sub10                      8.47       0.00       0.00       0.68       6.50       0.00       6.50        0.07    12.87   0.767
  sub11                      8.47       0.00       0.00       0.68       6.52       0.00       6.52        0.08    13.93   0.769
  sub12                      8.47       0.00       0.00       1.10       6.18       0.00       6.18        0.05    10.23   0.730
  sub14                      8.47       0.00       0.00       0.76       6.44       0.00       6.44        0.06    11.15   0.760
  sub15                      8.47       0.00       0.00       2.54       4.95       0.00       4.95        0.09    15.40   0.584
  sub16                      8.47       0.00       0.00       2.79       4.76       0.00       4.76        0.05     9.37   0.561
  sub17                      8.47       0.00       0.00       2.71       4.82       0.00       4.82        0.04     7.75   0.570
  sub22                      8.47       0.00       0.00       3.64       4.04       0.00       4.04        0.26    47.08   0.477
  sub23                      8.47       0.00       0.00       3.13       4.46       0.00       4.46        0.21    39.46   0.527
  sub60                      8.47       0.00       0.00       1.02       4.75       0.00       4.75        1.44   149.28   0.561
  sub61                      8.47       0.00       0.00       1.44       4.95       0.00       4.95        1.53   180.35   0.585
  sub62                      8.47       0.00       0.00       0.68       5.35       0.00       5.35        1.64   187.08   0.631
  sub63                      8.47       0.00       0.00       2.46       4.37       0.00       4.37        1.32   164.01   0.516
  sub64                      8.47       0.00       0.00       1.27       4.55       0.00       4.55        1.38   141.99   0.537
  sub65                      8.47       0.00       0.00       1.10       4.62       0.00       4.62        1.42   144.28   0.545
  sub66                      8.47       0.00       0.00       2.46       3.94       0.00       3.94        1.21   129.20   0.465
  sub67                      8.47       0.00       0.00       0.68       5.75       0.00       5.75        1.78   226.25   0.679
  sub68                      8.47       0.00       0.00       1.19       5.24       0.00       5.24        1.61   196.27   0.618
  sub69                      8.47       0.00       0.00       1.27       5.53       0.00       5.53        1.29   176.57   0.653
  sub70                      8.47       5.64       0.00       4.80       7.11       0.00       7.11        1.63   167.69   0.504
  sub71                      8.47       0.00       0.00       0.68       5.16       0.00       5.16        1.22   132.38   0.610
  sub72                      8.47       0.00       0.00       0.59       3.87       0.00       3.87        0.79    64.98   0.457
  sub73                      8.47       6.92       0.00       5.23       7.51       0.00       7.51        1.76   149.38   0.488
  sub74                      8.47       0.00       0.00       6.35       1.66       0.00       1.66        0.66    93.55   0.196
  
  
  ******************
  Node Depth Summary
  ******************
  
  ---------------------------------------------------------------------------------
                                 Average  Maximum  Maximum  Time of Max    Reported
                                   Depth    Depth      HGL   Occurrence   Max Depth
  Node                 Type       Meters   Meters   Meters  days hr:min      Meters
  ---------------------------------------------------------------------------------
  WS02001211           JUNCTION     0.69     0.79     5.62     0  02:20        0.79
  WS02001212           JUNCTION     0.42     0.50     5.56     0  02:19        0.50
  WS02001213           JUNCTION     0.66     0.75     5.51     0  02:53        0.75
  WS02003069           JUNCTION     0.48     0.58     5.16     0  02:55        0.58
  WS02003072           JUNCTION     0.55     0.64     5.01     0  02:55        0.64
  WS02003073           JUNCTION     0.33     0.39     4.46     0  02:55        0.39
  WS02003060           JUNCTION     0.43     0.51     5.44     0  02:54        0.51
  WS02003066           JUNCTION     0.25     0.30     5.86     0  02:34        0.30
  WS02003059           JUNCTION     0.72     0.80     5.49     0  02:54        0.80
  WS02003067           JUNCTION     0.61     0.71     6.03     0  02:34        0.71
  WS02004401           JUNCTION     0.72     0.88     6.88     0  02:31        0.87
  WS02004402           JUNCTION     0.75     0.90     6.86     0  02:31        0.90
  WS02004403           JUNCTION     0.77     0.91     6.84     0  02:32        0.91
  WS02004404           JUNCTION     0.85     0.98     6.83     0  02:32        0.98
  WS02004406           JUNCTION     0.85     0.97     6.80     0  02:32        0.97
  WS02004409           JUNCTION     0.54     0.69     6.46     0  02:32        0.69
  WS02004410           JUNCTION     0.56     0.70     6.42     0  02:33        0.70
  WS02004411           JUNCTION     0.57     0.71     6.39     0  02:33        0.71
  WS02004412           JUNCTION     0.59     0.71     6.35     0  02:33        0.71
  WS02004413           JUNCTION     0.75     0.87     6.34     0  02:33        0.87
  WS02004405           JUNCTION     0.84     0.97     6.82     0  02:32        0.97
  WS02006109           JUNCTION     0.81     0.99     7.61     0  02:27        0.99
  WS02006110           JUNCTION     0.80     0.94     7.52     0  02:27        0.94
  WS02006111           JUNCTION     0.24     0.29     7.00     0  02:31        0.29
  WS02006112           JUNCTION     0.90     1.09     6.97     0  02:32        1.07
  WS02006113           JUNCTION     0.37     0.47     7.36     0  02:28        0.47
  WS02006115           JUNCTION     0.62     0.78     6.92     0  02:31        0.78
  WS02006116           JUNCTION     0.70     0.86     6.90     0  02:31        0.86
  WS02006230           JUNCTION     0.81     1.05     7.80     0  02:22        1.05
  WS02006231           JUNCTION     0.55     0.73     7.85     0  02:22        0.72
  WS02006232           JUNCTION     0.69     0.86     7.90     0  02:22        0.86
  WS02006234           JUNCTION     0.62     0.80     7.96     0  02:21        0.80
  WS02006235           JUNCTION     0.66     0.83     8.00     0  02:21        0.83
  WS02006238           JUNCTION     0.69     0.86     8.00     0  02:21        0.86
  WS02006240           JUNCTION     0.60     0.78     8.07     0  02:22        0.78
  WS02006242           JUNCTION     0.66     0.84     8.11     0  02:22        0.83
  WS02006243           JUNCTION     0.54     0.72     8.14     0  02:21        0.72
  WS02006245           JUNCTION     0.52     0.69     8.18     0  02:21        0.69
  WS02006247           JUNCTION     0.53     0.70     8.20     0  02:21        0.70
  WS02006248           JUNCTION     0.47     0.63     8.22     0  02:23        0.63
  WS02006249           JUNCTION     0.50     0.64     8.23     0  02:28        0.64
  WS02006239           JUNCTION     0.65     0.83     8.04     0  02:21        0.83
  WS02006251           JUNCTION     0.50     0.67     8.34     0  02:25        0.67
  WS02006252           JUNCTION     0.45     0.59     8.84     0  04:33        0.59
  WS02006253           JUNCTION     0.53     0.70     8.34     0  02:23        0.70
  WS02006256           JUNCTION     1.10     1.21     8.15     0  02:22        1.21
  WS02004138           JUNCTION     0.16     0.19     7.44     0  02:12        0.19
  WS02004407           JUNCTION     0.24     0.30     6.62     0  02:32        0.30
  WS02006228           JUNCTION     0.82     1.04     7.69     0  02:22        1.04
  WS02006229           JUNCTION     0.80     1.04     7.74     0  02:22        1.04
  WS02006280           JUNCTION     0.06     0.14     8.41     0  02:27        0.14
  WS02006284           JUNCTION     0.36     0.48     8.88     0  02:27        0.48
  WS02006287           JUNCTION     0.09     0.21     9.16     0  02:27        0.21
  WSF200               JUNCTION     0.24     0.32     5.55     0  02:35        0.32
  HS02004901           JUNCTION     0.12     0.22    10.04     0  02:25        0.22
  HS02004881           JUNCTION     0.01     0.02     9.05     0  02:26        0.02
  HS02004876           JUNCTION     0.04     0.10     9.13     0  02:25        0.10
  HS02004870           JUNCTION     0.01     0.04     9.33     0  02:26        0.04
  HS02004862           JUNCTION     0.02     0.05     9.43     0  02:27        0.05
  HS02004856           JUNCTION     0.08     0.11     9.53     0  02:26        0.11
  HS02004852           JUNCTION     0.01     0.03     9.54     0  02:27        0.03
  HS02004848           JUNCTION     0.01     0.03     9.63     0  02:26        0.03
  HS02004842           JUNCTION     0.33     0.36     9.63     0  02:26        0.36
  HS02004837           JUNCTION     0.03     0.05     9.63     0  02:26        0.05
  HS02004830           JUNCTION     0.04     0.06     9.53     0  02:26        0.06
  HS02004824           JUNCTION     0.02     0.04     9.45     0  02:27        0.04
  HS02004817           JUNCTION     0.44     0.53     9.37     0  02:27        0.53
  HS02004807           JUNCTION     0.12     0.20     9.37     0  02:27        0.20
  HS02004802           JUNCTION     0.16     0.24     9.37     0  02:27        0.24
  HS02004799           JUNCTION     0.11     0.25     9.46     0  02:25        0.25
  HS02004792           JUNCTION     0.03     0.09     9.62     0  02:25        0.09
  HS02004788           JUNCTION     0.02     0.07     9.97     0  02:26        0.07
  HS02004785           JUNCTION     0.04     0.13    10.03     0  02:25        0.13
  HS02004777           JUNCTION     0.14     0.24    10.04     0  02:25        0.24
  HS02004770           JUNCTION     0.11     0.21    10.04     0  02:25        0.21
  HS02004480           JUNCTION     0.08     0.19     9.43     0  02:26        0.19
  HS02004479           JUNCTION     0.11     0.23     9.43     0  02:25        0.23
  HS02004478           JUNCTION     0.06     0.12     9.35     0  02:26        0.12
  YS02001745           JUNCTION     0.52     0.83     8.35     0  04:58        0.83
  YS02001748           JUNCTION     0.90     1.38     8.45     0  03:40        1.27
  YS02001751           JUNCTION     1.09     2.20     9.08     0  03:07        1.47
  YS02001754           JUNCTION     1.34     2.13     8.74     0  03:08        1.75
  YS02001762           JUNCTION     1.54     1.97     8.37     0  04:23        1.96
  YS02001765           JUNCTION     1.49     1.92     8.37     0  04:55        1.91
  YS02001767           JUNCTION     1.46     1.88     8.37     0  04:56        1.87
  YS02001770           JUNCTION     1.45     1.88     8.38     0  04:45        1.87
  YS02001774           JUNCTION     1.52     1.95     8.38     0  04:23        1.94
  YS02001779           JUNCTION     1.27     1.68     8.37     0  02:59        1.68
  YS02001882           JUNCTION     0.36     0.64     7.35     0  03:01        0.63
  YS02001884           JUNCTION     0.46     0.74     7.35     0  03:01        0.73
  YS02001759           JUNCTION     1.58     2.00     8.37     0  05:03        2.00
  YS02001887           JUNCTION     0.53     0.81     7.35     0  03:02        0.81
  YS02001890           JUNCTION     0.56     0.84     7.35     0  03:01        0.84
  YS02001898           JUNCTION     0.33     0.60     7.33     0  03:00        0.59
  YS02001901           JUNCTION     0.45     0.72     7.33     0  03:00        0.72
  YS02001904           JUNCTION     0.43     0.70     7.33     0  02:59        0.69
  YS02001907           JUNCTION     0.76     1.05     7.34     0  03:00        1.03
  YS02001910           JUNCTION     0.55     0.82     7.33     0  03:02        0.82
  YS02001915           JUNCTION     0.35     0.61     7.32     0  03:00        0.60
  YS02001918           JUNCTION     0.11     0.26     7.33     0  03:01        0.26
  YS02001619           JUNCTION     1.05     1.61     8.54     0  03:30        1.46
  YS02001629           JUNCTION     1.41     1.85     8.40     0  03:35        1.84
  YS02001641           JUNCTION     1.51     1.93     8.37     0  04:50        1.92
  YS02001644           JUNCTION     1.52     1.92     8.35     0  04:07        1.92
  YS02001652           JUNCTION     1.36     2.16     8.76     0  03:01        1.79
  YS02001655           JUNCTION     1.12     2.20     9.05     0  02:55        1.56
  YS02001920           JUNCTION     0.21     0.33     7.34     0  03:01        0.33
  YS02001923           JUNCTION     0.08     0.12     7.38     0  03:02        0.12
  YS02001926           JUNCTION     0.17     0.23     7.67     0  03:02        0.23
  YS02001929           JUNCTION     0.09     0.12     7.81     0  03:01        0.12
  YS02001658           JUNCTION     0.85     2.30     9.44     0  03:31        1.30
  YS02001661           JUNCTION     0.63     1.06     8.46     0  04:25        1.04
  YS02001664           JUNCTION     0.23     0.54     8.46     0  04:25        0.54
  YS02001622           JUNCTION     1.07     1.58     8.49     0  03:30        1.49
  YS02001633           JUNCTION     1.50     1.94     8.39     0  04:50        1.93
  YS02001649           JUNCTION     1.55     2.00     8.39     0  03:29        1.98
  YS02001757           JUNCTION     1.67     2.11     8.37     0  04:53        2.10
  YS02001895           JUNCTION     0.33     0.59     7.34     0  03:00        0.59
  YS02001625           JUNCTION     1.36     1.78     8.38     0  03:34        1.78
  YS02163301           JUNCTION     1.44     1.89     8.41     0  03:37        1.87
  YS02163601           JUNCTION     1.55     1.99     8.38     0  04:50        1.98
  YS02164001           JUNCTION     1.49     1.92     8.38     0  04:50        1.91
  YS02001647           JUNCTION     1.34     1.76     8.37     0  04:54        1.75
  YSB1154              JUNCTION     0.25     0.38     9.43     0  02:26        0.38
  YSB6556              JUNCTION     0.15     0.26     9.43     0  02:26        0.26
  YSB1174              JUNCTION     0.20     0.32     9.43     0  02:26        0.32
  YSB1171              JUNCTION     0.40     0.53     9.43     0  02:25        0.53
  YS02006553           JUNCTION     0.76     1.06     7.34     0  03:00        1.04
  YS02006561           JUNCTION     0.18     0.35     7.01     0  03:03        0.35
  YS02006556           JUNCTION     0.74     1.01     7.32     0  03:01        1.00
  YS02006558           JUNCTION     0.78     1.06     7.32     0  02:59        1.04
  YS02001783           JUNCTION     0.33     0.76     6.90     0  03:17        0.75
  YS02001784           JUNCTION     0.36     0.79     6.86     0  03:17        0.79
  YS02001786           JUNCTION     0.31     0.78     6.81     0  03:18        0.78
  YS02001788           JUNCTION     0.24     0.79     6.77     0  03:17        0.78
  YS02001790           JUNCTION     0.31     1.65     7.30     0  03:14        1.06
  YS02001791           JUNCTION     0.24     1.77     7.24     0  03:13        1.17
  YS02001793           JUNCTION     0.25     2.72     7.56     0  03:11        1.78
  WS02004139           JUNCTION     0.64     0.73     5.64     0  02:20        0.73
  WSC                  OUTFALL      0.33     0.39     1.06     0  02:56        0.39
  3                    OUTFALL      0.13     0.21     6.21     0  02:22        0.21
  4                    OUTFALL      0.05     0.14     7.14     0  02:28        0.14
  5                    OUTFALL      0.00     0.00     5.00     0  00:00        0.00
  JK-storage           STORAGE      0.86     5.80     6.60     0  03:16        5.80
  CC-storage           STORAGE      0.88     1.32     8.32     0  04:57        1.32
  XR-storage           STORAGE      6.29     7.72     5.72     0  03:46        7.72
  
  
  *******************
  Node Inflow Summary
  *******************
  
  -------------------------------------------------------------------------------------------------
                                  Maximum  Maximum                  Lateral       Total        Flow
                                  Lateral    Total  Time of Max      Inflow      Inflow     Balance
                                   Inflow   Inflow   Occurrence      Volume      Volume       Error
  Node                 Type           LPS      LPS  days hr:min    10^6 ltr    10^6 ltr     Percent
  -------------------------------------------------------------------------------------------------
  WS02001211           JUNCTION      7.35   387.39     0  02:20       0.207        7.75       0.466
  WS02001212           JUNCTION      0.00   387.47     0  02:20           0        7.72       0.262
  WS02001213           JUNCTION      0.00   387.93     0  02:20           0         7.7       0.331
  WS02003069           JUNCTION      0.32   925.27     0  02:54     0.00902        16.9       0.197
  WS02003072           JUNCTION      0.00   925.01     0  02:55           0        16.9       0.237
  WS02003073           JUNCTION      1.82   927.01     0  02:55      0.0514        16.9       0.269
  WS02003060           JUNCTION     16.53   925.25     0  02:54       0.466        16.9       0.188
  WS02003066           JUNCTION      0.00   566.49     0  02:34           0        8.84       0.057
  WS02003059           JUNCTION      0.00   388.68     0  02:21           0        7.67       0.502
  WS02003067           JUNCTION      0.00   566.47     0  02:34           0        8.85       0.117
  WS02004401           JUNCTION      0.00   568.61     0  02:31           0        9.11       0.266
  WS02004402           JUNCTION      0.00   568.16     0  02:31           0        9.08       0.247
  WS02004403           JUNCTION      0.00   567.89     0  02:31           0        9.06       0.222
  WS02004404           JUNCTION      0.16   567.90     0  02:32     0.00457        9.05       0.164
  WS02004406           JUNCTION      0.00   567.91     0  02:32           0        9.01       0.400
  WS02004409           JUNCTION      0.00   567.40     0  02:32           0        8.97       0.217
  WS02004410           JUNCTION      0.00   567.04     0  02:32           0        8.95       0.240
  WS02004411           JUNCTION      0.00   566.79     0  02:33           0        8.93       0.243
  WS02004412           JUNCTION      0.00   566.64     0  02:33           0         8.9       0.258
  WS02004413           JUNCTION      0.00   566.56     0  02:33           0        8.88       0.374
  WS02004405           JUNCTION      0.04   567.84     0  02:32     0.00107        9.03       0.245
  WS02006109           JUNCTION      1.23   560.66     0  02:27      0.0347        9.21       0.227
  WS02006110           JUNCTION      0.00   560.65     0  02:27           0        9.19       0.249
  WS02006111           JUNCTION      0.00   585.00     0  02:28           0        9.15       0.057
  WS02006112           JUNCTION      7.75   573.68     0  02:31      0.0414        9.19       0.354
  WS02006113           JUNCTION      0.00   560.95     0  02:27           0        9.16       0.129
  WS02006115           JUNCTION      0.00   576.98     0  02:31           0        9.15       0.266
  WS02006116           JUNCTION      0.00   570.09     0  02:31           0        9.13       0.234
  WS02006230           JUNCTION     10.28   400.65     0  04:20        0.29         7.9       0.172
  WS02006231           JUNCTION      0.00   390.47     0  04:19           0        7.63       0.208
  WS02006232           JUNCTION      0.00   390.47     0  04:19           0        7.65       0.228
  WS02006234           JUNCTION      0.00   392.23     0  03:42           0        7.66       0.141
  WS02006235           JUNCTION      0.00   392.68     0  04:13           0         7.7       0.157
  WS02006238           JUNCTION      0.00   314.44     0  06:40           0        5.65       0.163
  WS02006240           JUNCTION      0.00   329.06     0  03:11           0        5.64       0.281
  WS02006242           JUNCTION      0.00   337.84     0  03:11           0        5.65       0.334
  WS02006243           JUNCTION      0.00   341.79     0  03:11           0        5.65       0.135
  WS02006245           JUNCTION      0.00   343.47     0  03:11           0        5.66       0.249
  WS02006247           JUNCTION      0.00   347.09     0  02:01           0        5.67       0.187
  WS02006248           JUNCTION      0.00   353.88     0  02:20           0        5.68       0.141
  WS02006249           JUNCTION      0.00   443.40     0  02:23           0        6.87       0.209
  WS02006239           JUNCTION      0.00   319.25     0  03:10           0        5.65       0.263
  WS02006251           JUNCTION      0.08   443.62     0  02:23     0.00217         6.9       0.210
  WS02006252           JUNCTION      0.00   400.00     0  02:20           0        6.65       0.008
  WS02006253           JUNCTION      1.03    41.74     0  02:26     0.00535       0.259       3.331
  WS02006256           JUNCTION      0.00   600.00     0  02:20           0        7.55       0.036
  WS02004138           JUNCTION      0.00   380.00     0  02:10           0        7.58       0.070
  WS02004407           JUNCTION      0.00   567.58     0  02:32           0        8.98       0.098
  WS02006228           JUNCTION      0.00   559.43     0  02:27           0        9.19       0.170
  WS02006229           JUNCTION      0.00   559.40     0  02:27           0         9.2       0.141
  WS02006280           JUNCTION      0.00   204.81     0  02:27           0        1.31       0.005
  WS02006284           JUNCTION      0.10   204.80     0  02:27      0.0027        1.31       0.087
  WS02006287           JUNCTION      0.00   204.70     0  02:27           0        1.31       0.053
  WSF200               JUNCTION      0.00   566.48     0  02:34           0        8.83       0.059
  HS02004901           JUNCTION      9.37     9.37     0  02:23      0.0498      0.0501       3.647
  HS02004881           JUNCTION      4.04    40.76     0  02:26      0.0217        0.23       0.115
  HS02004876           JUNCTION      7.43    36.75     0  02:26      0.0417       0.209       0.259
  HS02004870           JUNCTION      7.54    29.42     0  02:26      0.0411       0.167       0.066
  HS02004862           JUNCTION      7.28    22.06     0  02:26      0.0469       0.126       0.137
  HS02004856           JUNCTION      5.65    14.84     0  02:26       0.031      0.0805       1.827
  HS02004852           JUNCTION      0.00     9.33     0  02:26           0      0.0496       0.109
  HS02004848           JUNCTION     15.91    15.91     0  02:26      0.0988      0.0988       0.048
  HS02004842           JUNCTION      0.00     6.79     0  02:52           0      0.0622      26.418
  HS02004837           JUNCTION     19.22    25.66     0  02:25       0.251         0.3       0.272
  HS02004830           JUNCTION      0.15    25.80     0  02:26     0.00423        0.29       0.427
  HS02004824           JUNCTION     19.28    44.91     0  02:27       0.129       0.418       0.130
  HS02004817           JUNCTION      0.60    45.51     0  02:27      0.0169       0.435       3.988
  HS02004807           JUNCTION     13.93    58.94     0  02:27      0.0757       0.494       0.884
  HS02004802           JUNCTION      0.00    59.00     0  02:28           0       0.491       0.815
  HS02004799           JUNCTION     11.15   123.20     0  02:25      0.0613       0.713       0.360
  HS02004792           JUNCTION     47.36   112.13     0  02:24       0.263       0.652       0.064
  HS02004788           JUNCTION     17.07    65.26     0  02:25       0.132        0.39       0.100
  HS02004785           JUNCTION      0.15    48.39     0  02:25     0.00423       0.259       0.188
  HS02004777           JUNCTION      0.03    48.40     0  02:24    0.000846        0.26       2.037
  HS02004770           JUNCTION     39.46    48.64     0  02:23       0.213       0.261       1.203
  HS02004480           JUNCTION      0.00   146.07     0  02:25           0       0.837       0.127
  HS02004479           JUNCTION      0.00    23.09     0  02:27           0       0.137       0.537
  HS02004478           JUNCTION      0.00   204.69     0  02:26           0        1.31       0.032
  YS02001745           JUNCTION    149.28   243.85     0  03:27        1.44        1.46       0.404
  YS02001748           JUNCTION      0.04   350.00     0  03:28     0.00127        1.45       1.316
  YS02001751           JUNCTION      0.01   337.30     0  03:00     0.00031        1.42       1.594
  YS02001754           JUNCTION      0.26   205.28     0  03:03     0.00733         1.4       1.806
  YS02001762           JUNCTION      0.00   209.84     0  03:00           0        1.57       1.357
  YS02001765           JUNCTION      0.00   206.78     0  03:00           0        1.57       1.578
  YS02001767           JUNCTION      0.54   205.18     0  03:00      0.0151        1.59       2.307
  YS02001770           JUNCTION    187.24   202.72     0  03:00        1.65        1.66       1.955
  YS02001774           JUNCTION      0.00    32.81     0  01:57           0      0.0592      74.428
  YS02001779           JUNCTION      0.01    26.77     0  02:52    0.000141      0.0237     174.556
  YS02001882           JUNCTION      0.00    16.67     0  02:58           0      0.0128      17.926
  YS02001884           JUNCTION      0.00    16.66     0  02:53           0      0.0398      15.903
  YS02001759           JUNCTION    180.39   392.68     0  03:00        1.53        3.06       0.749
  YS02001887           JUNCTION    226.70   240.28     0  03:00        1.79        1.81       0.433
  YS02001890           JUNCTION      0.00   235.04     0  03:02           0        1.77       0.481
  YS02001898           JUNCTION      0.00   243.93     0  03:02           0        1.76       0.153
  YS02001901           JUNCTION      0.00   244.57     0  03:04           0        1.76       0.353
  YS02001904           JUNCTION      0.00   248.04     0  03:01           0        1.75       0.326
  YS02001907           JUNCTION      0.00   468.11     0  03:03           0        3.82       0.598
  YS02001910           JUNCTION      0.00   234.07     0  03:02           0        2.08       0.527
  YS02001915           JUNCTION    132.40   214.96     0  03:02        1.22        2.08       0.254
  YS02001918           JUNCTION      0.00    77.06     0  03:02           0       0.866       0.176
  YS02001619           JUNCTION    129.20   129.20     0  03:01        1.21        1.21       0.970
  YS02001629           JUNCTION      0.00   209.42     0  02:57           0        1.13       2.517
  YS02001641           JUNCTION      0.00   298.23     0  03:01           0        2.45       0.869
  YS02001644           JUNCTION    142.03   438.84     0  03:01        1.38         3.8       0.692
  YS02001652           JUNCTION      0.00   235.52     0  03:02           0        1.28       1.887
  YS02001655           JUNCTION      0.15   404.60     0  03:01     0.00434        1.31       1.700
  YS02001920           JUNCTION      2.87    67.64     0  03:02      0.0809       0.868       0.287
  YS02001923           JUNCTION      0.04    64.78     0  03:02     0.00106       0.788       0.052
  YS02001926           JUNCTION      0.05    64.97     0  03:01     0.00147       0.789       0.356
  YS02001929           JUNCTION     64.98    64.98     0  03:01       0.788       0.788       0.051
  YS02001658           JUNCTION      0.00   511.12     0  03:28           0        1.41       1.013
  YS02001661           JUNCTION      0.00   418.40     0  04:20           0        1.96       0.202
  YS02001664           JUNCTION    164.01   368.09     0  04:20        1.32        1.87       0.098
  YS02001622           JUNCTION      0.00   167.77     0  03:02           0         1.2       2.663
  YS02001633           JUNCTION    144.48   300.43     0  03:01        1.43         2.5       1.304
  YS02001649           JUNCTION      0.00   635.84     0  03:02           0        4.98       0.749
  YS02001757           JUNCTION      0.00  1090.82     0  03:02           0        9.33       0.996
  YS02001895           JUNCTION      0.00   240.36     0  03:02           0        1.76       0.241
  YS02001625           JUNCTION      0.00   209.78     0  02:57           0        1.16       3.448
  YS02163301           JUNCTION      0.00   157.46     0  03:01           0         1.1       2.228
  YS02163601           JUNCTION      0.11   300.15     0  03:01      0.0031        2.47       1.234
  YS02164001           JUNCTION      0.00   299.59     0  03:01           0        2.45       0.824
  YS02001647           JUNCTION      0.00   438.94     0  03:01           0        3.75       0.755
  YSB1154              JUNCTION     13.22    13.22     0  02:24      0.0743      0.0752       1.964
  YSB6556              JUNCTION      0.00    13.14     0  02:25           0      0.0759       1.671
  YSB1174              JUNCTION     10.23    10.23     0  02:22       0.054      0.0546       2.413
  YSB1171              JUNCTION      0.00    23.08     0  02:25           0       0.136       4.885
  YS02006553           JUNCTION      0.00   465.20     0  03:03           0        3.81       0.387
  YS02006561           JUNCTION      0.00   678.64     0  03:02           0        5.39      -0.002
  YS02006556           JUNCTION      0.00   468.53     0  03:03           0        3.81       0.283
  YS02006558           JUNCTION    197.15   662.15     0  03:03        1.63        5.42       0.104
  YS02001783           JUNCTION      0.00   657.74     0  03:03           0        5.39       0.036
  YS02001784           JUNCTION      1.06   655.22     0  03:03      0.0299        5.42       0.057
  YS02001786           JUNCTION      0.06   651.85     0  03:03     0.00159        5.42       0.054
  YS02001788           JUNCTION      0.07   650.81     0  03:04       0.002        5.42       0.033
  YS02001790           JUNCTION      0.15   651.21     0  03:04     0.00437        5.42       0.039
  YS02001791           JUNCTION      0.00   656.57     0  03:04           0        5.42       0.019
  YS02001793           JUNCTION      0.00   702.08     0  03:11           0        5.42      -0.004
  WS02004139           JUNCTION      0.32   380.32     0  02:12     0.00905        7.58       0.518
  WSC                  OUTFALL       0.00   927.73     0  02:56           0        16.8       0.000
  3                    OUTFALL       0.00   522.69     0  02:22           0        5.46       0.000
  4                    OUTFALL       0.00   174.85     0  02:28           0        1.17       0.000
  5                    OUTFALL       0.00     0.00     0  00:00           0           0       0.000 ltr
  JK-storage           STORAGE       0.00   859.74     0  03:11           0        5.57     -26.674
  CC-storage           STORAGE       0.00  1091.85     0  03:02           0        9.23       0.005
  XR-storage           STORAGE     442.93   442.93     0  03:01        8.07        8.67      -0.001
  
  
  **********************
  Node Surcharge Summary
  **********************
  
  Surcharging occurs when water rises above the top of the highest conduit.
  ---------------------------------------------------------------------
                                               Max. Height   Min. Depth
                                   Hours       Above Crown    Below Rim
  Node                 Type      Surcharged         Meters       Meters
  ---------------------------------------------------------------------
  WS02006109           JUNCTION        3.95          0.175        1.645
  WS02006110           JUNCTION        0.63          0.028        1.822
  WS02006112           JUNCTION        0.75          0.090        1.590
  WS02006231           JUNCTION        0.22          0.018        1.512
  WS02006232           JUNCTION        4.09          0.160        1.320
  WS02006234           JUNCTION        0.76          0.080        1.160
  WS02006235           JUNCTION        3.06          0.123        1.167
  WS02006238           JUNCTION        3.54          0.140        1.290
  WS02006240           JUNCTION        0.81          0.065        1.325
  WS02006242           JUNCTION        3.00          0.108        0.712
  WS02006243           JUNCTION        0.40          0.014        0.756
  WS02006239           JUNCTION        1.43          0.089        1.201
  WS02006252           JUNCTION        4.31          0.193        0.907
  WS02006228           JUNCTION        3.78          0.210        1.990
  YS02001748           JUNCTION        2.77          0.298        0.892
  YS02001751           JUNCTION        4.56          1.200        0.000
  YS02001754           JUNCTION        5.10          1.085        0.065
  YS02001762           JUNCTION        5.50          0.970        0.180
  YS02001765           JUNCTION        5.47          0.921        0.179
  YS02001767           JUNCTION        5.43          0.884        0.146
  YS02001770           JUNCTION        5.40          0.850        0.070
  YS02001774           JUNCTION        5.49          0.954        0.096
  YS02001779           JUNCTION        5.07          0.680        0.000
  YS02001759           JUNCTION        5.54          1.005        0.205
  YS02001907           JUNCTION        0.25          0.045        0.905
  YS02001619           JUNCTION        4.47          0.610        0.000
  YS02001629           JUNCTION        4.47          0.470        0.000
  YS02001641           JUNCTION        5.48          0.931        0.169
  YS02001644           JUNCTION        5.48          0.920        0.000
  YS02001652           JUNCTION        5.19          1.130        0.000
  YS02001655           JUNCTION        4.63          1.200        0.000
  YS02001658           JUNCTION        2.82          1.300        0.000
  YS02001622           JUNCTION        4.64          0.585        0.035
  YS02001633           JUNCTION        5.46          0.920        0.140
  YS02001649           JUNCTION        5.51          0.997        0.053
  YS02001757           JUNCTION        5.64          1.106        0.104
  YS02001625           JUNCTION        5.25          0.780        0.000
  YS02163301           JUNCTION        5.43          0.892        0.138
  YS02163601           JUNCTION        5.51          0.986        0.094
  YS02164001           JUNCTION        5.47          0.918        0.182
  YS02001647           JUNCTION        5.23          0.757        0.143
  YS02006553           JUNCTION        0.38          0.055        1.135
  YS02001790           JUNCTION        0.42          0.851        0.306
  YS02001791           JUNCTION        0.46          0.973        0.947
  YS02001793           JUNCTION        0.54          1.724        0.876
  
  
  *********************
  Node Flooding Summary
  *********************
  
  Flooding refers to all water that overflows a node, whether it ponds or not.
  --------------------------------------------------------------------------
                                                             Total   Maximum
                                 Maximum   Time of Max       Flood    Ponded
                        Hours       Rate    Occurrence      Volume     Depth
  Node                 Flooded       LPS   days hr:min    10^6 ltr    Meters
  --------------------------------------------------------------------------
  YS02001751              0.01    153.98      0  03:07       0.000     0.000
  YS02001779              0.02      2.98      0  02:59       0.000     0.000
  YS02001619              0.01      6.64      0  03:30       0.000     0.000
  YS02001629              0.01     18.62      0  03:35       0.000     0.000
  YS02001644              0.57     29.98      0  04:55       0.017     0.000
  YS02001652              0.01     26.29      0  03:01       0.000     0.000
  YS02001655              0.01    312.23      0  03:01       0.001     0.000
  YS02001658              0.01    145.87      0  03:31       0.000     0.000
  YS02001625              0.07     12.55      0  03:35       0.000     0.000
  JK-storage              0.16    165.12      0  03:30       0.046     0.000
  XR-storage              1.16    154.64      0  04:00       0.255     0.000
  
  
  **********************
  Storage Volume Summary
  **********************
  
  --------------------------------------------------------------------------------------------------
                         Average     Avg  Evap Exfil       Maximum     Max    Time of Max    Maximum
                          Volume    Pcnt  Pcnt  Pcnt        Volume    Pcnt     Occurrence    Outflow
  Storage Unit           1000 m3    Full  Loss  Loss       1000 m3    Full    days hr:min        LPS
  --------------------------------------------------------------------------------------------------
  JK-storage               0.043      15     0     0         0.291     100       0  03:16     600.00
  CC-storage               2.465      16     0     0         3.692      24       0  04:57     400.00
  XR-storage               0.755      81     0     0         0.926     100       0  03:46     380.00
  
  
  ***********************
  Outfall Loading Summary
  ***********************
  
  -----------------------------------------------------------
                         Flow       Avg       Max       Total
                         Freq      Flow      Flow      Volume
  Outfall Node           Pcnt       LPS       LPS    10^6 ltr
  -----------------------------------------------------------
  WSC                  100.00    680.92    927.73      16.836
  3                     95.85    261.78    522.69       5.458
  4                     64.37     78.93    174.85       1.172
  5                      0.00      0.00      0.00       0.000
  -----------------------------------------------------------
  System                65.06   1021.63   1589.36      23.466
  
  
  ********************
  Link Flow Summary
  ********************
  
  -----------------------------------------------------------------------------
                                 Maximum  Time of Max   Maximum    Max/    Max/
                                  |Flow|   Occurrence   |Veloc|    Full    Full
  Link                 Type          LPS  days hr:min     m/sec    Flow   Depth
  -----------------------------------------------------------------------------
  WS02003066WSF200     CONDUIT    566.48     0  02:34      2.80    0.10    0.24
  WS02006287WS02006284 CONDUIT    204.71     0  02:27      1.62    0.09    0.22
  WS02006284WS02006280 CONDUIT    204.81     0  02:27      1.86    0.09    0.20
  WS02006280WS02006229 CONDUIT    204.81     0  02:27      2.99    0.04    0.14
  WS02006229WS02006228 CONDUIT    559.43     0  02:27      1.11    1.85    1.00
  WS02006256WS02006235 CONDUIT    150.00     0  00:15      2.14    1.59    1.00
  WS02006253WS02006251 CONDUIT     54.51     0  02:58      0.43    0.16    0.97
  WS02006252WS02006251 CONDUIT    400.67     0  03:10      3.19    1.47    1.00
  WS02006251WS02006249 CONDUIT    443.40     0  02:23      1.22    1.28    0.93
  WS02006249WS02006248 CONDUIT    353.88     0  02:20      1.19    1.94    0.89
  WS02006248WS02006247 CONDUIT    347.09     0  02:01      1.16    0.76    0.94
  WS02006247WS02006245 CONDUIT    343.47     0  03:11      1.13    2.72    0.98
  WS02006245WS02006243 CONDUIT    341.79     0  03:11      1.17    1.01    0.99
  WS02006243WS02006242 CONDUIT    337.84     0  03:11      1.00    0.72    1.00
  WS02006242WS02006240 CONDUIT    329.06     0  03:11      0.89    1.31    1.00
  WS02006240WS02006239 CONDUIT    319.25     0  03:10      0.91    1.00    1.00
  WS02006239WS02006238 CONDUIT    314.44     0  06:40      0.84    1.01    1.00
  WS02006238WS02006235 CONDUIT    314.41     0  06:40      0.82    0.70    1.00
  WS02006235WS02006234 CONDUIT    392.23     0  03:42      1.04    4.14    1.00
  WS02006234WS02006232 CONDUIT    390.47     0  04:19      1.01    0.79    1.00
  WS02006232WS02006231 CONDUIT    390.47     0  04:19      1.06    0.82    1.00
  WS02006231WS02006230 CONDUIT    390.37     0  04:20      1.32    5.92    0.98
  WS02006230WS02006229 CONDUIT    400.76     0  04:21      1.04    8.92    1.00
  WS02006228WS02006109 CONDUIT    559.43     0  02:27      1.11    2.44    1.00
  WS02006116WS02004401 CONDUIT    568.61     0  02:31      0.80    0.78    0.87
  WS02006115WS02006116 CONDUIT    570.09     0  02:31      0.89    0.73    0.79
  WS02006113WS02006111 CONDUIT    585.00     0  02:28      2.50    0.70    0.47
  WS02006112WS02006115 CONDUIT    576.98     0  02:31      0.79    0.34    0.88
  WS02006111WS02006112 CONDUIT    566.76     0  02:31      1.56    0.27    0.68
  WS02006110WS02006113 CONDUIT    560.95     0  02:27      1.32    0.51    0.79
  WS02006109WS02006110 CONDUIT    560.65     0  02:27      1.12    1.08    1.00
  WS02004411WS02004412 CONDUIT    566.64     0  02:33      0.95    0.80    0.71
  WS02004401WS02004402 CONDUIT    568.16     0  02:31      0.83    0.68    0.89
  WS02004413WS02003067 CONDUIT    566.47     0  02:34      1.14    0.24    0.60
  WS02004412WS02004413 CONDUIT    566.56     0  02:33      0.85    0.38    0.79
  WS02004410WS02004411 CONDUIT    566.79     0  02:33      0.96    0.77    0.70
  WS02004409WS02004410 CONDUIT    567.04     0  02:32      0.98    0.73    0.69
  WS02004407WS02004409 CONDUIT    567.40     0  02:32      1.47    0.20    0.50
  WS02004406WS02004407 CONDUIT    567.58     0  02:32      1.07    0.25    0.64
  WS02004405WS02004406 CONDUIT    567.91     0  02:32      0.75    1.12    0.97
  WS02004404WS02004405 CONDUIT    567.80     0  02:32      0.96    5.56    0.98
  WS02004403WS02004404 CONDUIT    567.74     0  02:32      0.84    0.41    0.95
  WS02004402WS02004403 CONDUIT    567.89     0  02:31      0.85    0.82    0.91
  WS02004139WS02001211 CONDUIT    380.04     0  02:20      0.81    0.48    0.59
  WS02004138WS02004139 CONDUIT    380.00     0  02:12      3.34    0.08    0.44
  WS02003067WS02003066 CONDUIT    566.49     0  02:34      1.24    0.18    0.42
  WS02001213WS02003059 CONDUIT    388.68     0  02:21      0.78    0.64    0.76
  WS02001212WS02001213 CONDUIT    387.93     0  02:20      1.31    0.60    0.46
  WS02001211WS02001212 CONDUIT    387.47     0  02:20      0.77    0.30    0.64
  WS02003072WS02003073 CONDUIT    925.19     0  02:55      1.72    2.00    0.48
  WS02003069WS02003072 CONDUIT    925.01     0  02:55      1.61    0.45    0.51
  WS02003060WS02003069 CONDUIT    924.95     0  02:54      1.86    0.36    0.45
  WS02003059WS02003060 CONDUIT    389.25     0  02:21      0.92    0.25    0.65
  HS02004901HS02004770 CONDUIT      9.22     0  02:24      0.05    0.03    0.31
  HS02004876HS02004881 CONDUIT     36.81     0  02:26      0.59    0.39    0.09
  HS02004870HS02004876 CONDUIT     29.40     0  02:26      0.41    0.02    0.10
  HS02004842HS02004848 CONDUIT      6.79     0  02:52      0.04    0.00    0.28
  HS02004837HS02004842 CONDUIT      7.01     0  03:02      0.42    0.00    0.29
  HS02004830HS02004837 CONDUIT     25.65     0  02:26      0.46    0.03    0.08
  HS02004824HS02004830 CONDUIT     25.79     0  02:27      0.49    0.03    0.08
  HS02004817HS02004824 CONDUIT     44.91     0  02:27      0.17    0.02    0.41
  HS02004770HS02004777 CONDUIT     48.37     0  02:24      0.21    0.09    0.33
  HS02004799HS02004480 CONDUIT    123.11     0  02:25      0.58    0.16    0.31
  HS02004792HS02004799 CONDUIT    112.10     0  02:25      0.66    0.07    0.24
  HS02004788HS02004792 CONDUIT     65.23     0  02:26      0.81    0.04    0.11
  HS02004785HS02004788 CONDUIT     48.34     0  02:26      0.49    0.36    0.14
  HS02004777HS02004785 CONDUIT     48.24     0  02:25      0.26    0.06    0.26
  HS02004480HS02004478 CONDUIT    146.06     0  02:26      0.94    0.62    0.22
  HS02004479HS02004480 CONDUIT     23.22     0  02:28      0.27    0.02    0.30
  HS02004862HS02004870 CONDUIT     22.03     0  02:27      0.49    0.02    0.06
  HS02004848HS02004852 CONDUIT      9.33     0  02:26      0.33    0.01    0.04
  HS02004856HS02004862 CONDUIT     14.82     0  02:26      0.35    0.01    0.06
  HS02004852HS02004856 CONDUIT      9.30     0  02:27      0.14    0.01    0.10
  HS02004802HS02004478 CONDUIT     59.19     0  02:29      0.33    0.05    0.26
  HS02004478WS02006287 CONDUIT    204.70     0  02:27      1.31    0.06    0.17
  HS02004817HS02004807 CONDUIT     45.68     0  02:29      0.13    0.03    0.52
  HS02004807HS02004802 CONDUIT     59.00     0  02:28      0.28    0.11    0.31
  YS02001759YS02001757 CONDUIT    394.38     0  03:00      0.50    0.28    1.00
  YS02001762YS02001759 CONDUIT    212.52     0  03:00      0.27    0.24    1.00
  YS02001765YS02001762 CONDUIT    209.84     0  03:00      0.28    0.20    1.00
  YS02001770YS02001767 CONDUIT    204.64     0  03:00      0.26    0.81    1.00
  YS02001774YS02001770 CONDUIT     32.81     0  01:57      0.22    0.02    1.00
  YS02001779YS02001774 CONDUIT     26.77     0  02:52      0.05    0.01    1.00
  YS02001649YS02001757 CONDUIT    636.05     0  03:02      0.81    0.39    1.00
  YS02001767YS02001765 CONDUIT    206.78     0  03:00      0.30    0.26    1.00
  YS02006561YS02001783 CONDUIT    657.74     0  03:03      2.09    0.34    0.65
  YS02001783YS02001784 CONDUIT    654.16     0  03:03      1.57    0.90    0.97
  YS02001784YS02001785 CONDUIT    651.80     0  03:03      1.69    1.52    0.98
  YS02001788YS02001790 CONDUIT    651.05     0  03:04      2.23    0.48    0.99
  YS02001790YS02001791 CONDUIT    656.57     0  03:04      2.63    0.71    1.00
  YS02001791YS02001793 CONDUIT    702.08     0  03:11      5.49    0.30    1.00
  YS02001910YS02001907 CONDUIT    224.84     0  03:03      0.49    0.13    0.91
  YS02001786YS02001788 CONDUIT    650.74     0  03:04      2.14    1.25    0.98
  YS02001915YS02001910 CONDUIT    234.07     0  03:02      0.55    0.12    0.71
  YS02001918YS02001915 CONDUIT     84.45     0  03:02      0.44    0.05    0.43
  YS02001923YS02001920 CONDUIT     64.77     0  03:02      0.57    0.03    0.22
  YS02001926YS02001923 CONDUIT     64.74     0  03:02      0.66    0.09    0.18
  YS02001929YS02001926 CONDUIT     64.92     0  03:01      0.71    0.03    0.17
  YS02001920YS02001918 CONDUIT     77.06     0  03:02      0.57    0.07    0.29
  YS02001629YS02163301 CONDUIT    157.46     0  03:01      0.20    0.19    1.00
  YS02001619YS02001622 CONDUIT    167.77     0  03:02      0.57    0.25    1.00
  YS02001622YS02001625 CONDUIT    209.78     0  02:57      0.31    0.11    1.00
  YS02001625YS02001629 CONDUIT    209.42     0  02:57      0.27    0.10    1.00
  YS02163301YS02001633 CONDUIT    157.09     0  03:01      0.20    0.15    1.00
  YS02163601YS02164001 CONDUIT    299.59     0  03:01      0.38    0.27    1.00
  YS02164001YS02001641 CONDUIT    298.23     0  03:01      0.38    0.41    1.00
  YS02001641YS02001644 CONDUIT    297.93     0  03:01      0.38    0.96    1.00
  YS02001647YS02001649 CONDUIT    440.35     0  03:01      0.56    0.23    1.00
  YS02006553YS02006556 CONDUIT    468.53     0  03:03      0.60    0.40    0.99
  YS02006556YS02006558 CONDUIT    472.35     0  03:03      0.60    0.37    1.00
  YSB6556YSB1171       CONDUIT     13.19     0  02:28      0.06    0.01    0.57
  YS02001907YS02006553 CONDUIT    465.20     0  03:03      0.52    0.55    1.00
  YS02006558YS02006561 CONDUIT    678.64     0  03:02      3.09    1.50    0.73
  YS02001633YS02163601 CONDUIT    300.04     0  03:01      0.38    0.31    1.00
  YS02001644YS02001647 CONDUIT    438.94     0  03:01      0.56    0.26    1.00
  YS02001745YS02001748 CONDUIT    349.95     0  03:28      1.42    0.13    0.92
  YS02001748YS02001751 CONDUIT    337.29     0  03:00      1.00    0.17    1.00
  YS02001751YS02001754 CONDUIT    205.02     0  03:03      0.86    0.10    1.00
  YS02001754YS02001757 CONDUIT    202.10     0  03:03      0.33    0.08    1.00
  YS02001882YS02001884 CONDUIT     16.67     0  02:58      0.09    0.02    0.65
  YS02001884YS02001887 CONDUIT     15.72     0  03:01      0.05    0.02    0.75
  YS02001890YS02001895 CONDUIT    240.36     0  03:02      0.40    0.11    0.72
  YS02001895YS02001898 CONDUIT    243.93     0  03:02      0.53    0.42    0.58
  YS02001898YS02001901 CONDUIT    244.57     0  03:04      0.46    0.16    0.65
  YS02001901YS02001904 CONDUIT    248.04     0  03:01      0.43    0.38    0.70
  YS02001904YS02001907 CONDUIT    255.32     0  03:03      0.36    0.09    0.85
  YS02001887YS02001890 CONDUIT    235.04     0  03:02      0.35    0.40    0.80
  YS02001652YS02001649 CONDUIT    234.92     0  03:02      0.56    0.12    1.00
  YS02001655YS02001652 CONDUIT    235.52     0  03:02      0.91    0.11    1.00
  YS02001658YS02001655 CONDUIT    404.45     0  03:01      1.15    0.17    1.00
  YS02001661YS02001658 CONDUIT    511.12     0  03:28      1.49    0.20    0.99
  YS02001664YS02001661 CONDUIT    418.40     0  04:20      1.41    0.13    0.69
  YSB1154YSB6556       CONDUIT     13.14     0  02:25      0.16    0.02    0.46
  YSB1174YSB1171       CONDUIT     10.08     0  02:23      0.04    0.02    0.57
  YSB1171HS02004479    CONDUIT     23.09     0  02:27      0.54    0.02    0.44
  HS02004881HS02006253 CONDUIT     40.75     0  02:26      1.60    0.01    0.27
  YS02001793JiankangQianchi CONDUIT    859.74     0  03:11     14.87    0.07    1.00
  YS02001757CaochengTiaoxuchi CONDUIT   1091.85     0  03:02      1.79    0.48    1.00
  WSF200WS02003060     CONDUIT    566.69     0  02:36      1.86    0.13    0.34
  1                    CONDUIT    927.73     0  02:56      3.26    0.32    0.39
  2                    CONDUIT    174.85     0  02:28      5.64    0.42    0.45
  3                    CONDUIT    522.69     0  02:22      9.87    0.83    0.70
  4                    CONDUIT      0.00     0  00:00      0.00    0.00    0.00
  CC-Pump-1            PUMP       200.00     0  02:20              1.00
  CC-Pump-2            PUMP       200.00     0  02:20              1.00
  JK-Pump-1            PUMP       300.00     0  02:20              1.00
  JK-Pump-2            PUMP       300.00     0  00:20              1.00
  XR-Pump-1            PUMP        95.00     0  00:00              1.00
  XR-Pump-2            PUMP        95.00     0  00:00              1.00
  XR-Pump-3            PUMP        95.00     0  00:00              1.00
  XR-Pump-4            PUMP        95.00     0  00:40              1.00
  
  
  ***************************
  Flow Classification Summary
  ***************************
  
  -------------------------------------------------------------------------------------
                      Adjusted    ---------- Fraction of Time in Flow Class ---------- 
                       /Actual         Up    Down  Sub   Sup   Up    Down  Norm  Inlet 
  Conduit               Length    Dry  Dry   Dry   Crit  Crit  Crit  Crit  Ltd   Ctrl  
  -------------------------------------------------------------------------------------
  WS02003066WSF200        1.00   0.04  0.01  0.00  0.00  0.95  0.00  0.00  0.68  0.00
  WS02006287WS02006284    1.00   0.03  0.01  0.00  0.61  0.34  0.00  0.00  0.77  0.00
  WS02006284WS02006280    1.00   0.04  0.00  0.00  0.00  0.00  0.00  0.96  0.00  0.00
  WS02006280WS02006229    1.00   0.04  0.00  0.00  0.00  0.00  0.00  0.96  0.00  0.00
  WS02006229WS02006228    1.00   0.00  0.00  0.00  1.00  0.00  0.00  0.00  0.00  0.00
  WS02006256WS02006235    1.00   0.00  0.00  0.00  1.00  0.00  0.00  0.00  0.00  0.00
  WS02006253WS02006251    1.00   0.02  0.01  0.00  0.96  0.00  0.00  0.00  0.00  0.00
  WS02006252WS02006251    1.00   0.07  0.00  0.00  0.00  0.00  0.93  0.00  0.00  0.00
  WS02006251WS02006249    1.00   0.00  0.00  0.00  1.00  0.00  0.00  0.00  0.23  0.00
  WS02006249WS02006248    1.00   0.00  0.00  0.00  0.93  0.00  0.07  0.00  0.00  0.00
  WS02006248WS02006247    1.00   0.00  0.00  0.00  0.98  0.00  0.00  0.02  0.11  0.00
  WS02006247WS02006245    1.00   0.00  0.00  0.00  0.98  0.00  0.00  0.01  0.00  0.00
  WS02006245WS02006243    1.00   0.01  0.00  0.00  0.96  0.00  0.00  0.03  0.01  0.00
  WS02006243WS02006242    1.00   0.01  0.00  0.00  0.99  0.00  0.00  0.00  0.17  0.00
  WS02006242WS02006240    1.00   0.00  0.00  0.00  1.00  0.00  0.00  0.00  0.00  0.00
  WS02006240WS02006239    1.00   0.00  0.00  0.00  0.97  0.00  0.00  0.02  0.01  0.00
  WS02006239WS02006238    1.00   0.00  0.00  0.00  1.00  0.00  0.00  0.00  0.00  0.00
  WS02006238WS02006235    1.00   0.00  0.00  0.00  1.00  0.00  0.00  0.00  0.00  0.00
  WS02006235WS02006234    1.00   0.00  0.00  0.00  0.97  0.00  0.02  0.00  0.00  0.00
  WS02006234WS02006232    1.00   0.00  0.00  0.00  1.00  0.00  0.00  0.00  0.00  0.00
  WS02006232WS02006231    1.00   0.00  0.00  0.00  0.99  0.00  0.00  0.00  0.00  0.00
  WS02006231WS02006230    1.00   0.00  0.00  0.00  0.88  0.00  0.12  0.00  0.00  0.00
  WS02006230WS02006229    1.00   0.00  0.00  0.00  0.99  0.00  0.00  0.01  0.01  0.00
  WS02006228WS02006109    1.00   0.00  0.00  0.00  1.00  0.00  0.00  0.00  0.00  0.00
  WS02006116WS02004401    1.00   0.02  0.00  0.00  0.98  0.00  0.00  0.00  0.00  0.00
  WS02006115WS02006116    1.00   0.02  0.00  0.00  0.97  0.00  0.00  0.00  0.00  0.00
  WS02006113WS02006111    1.00   0.01  0.00  0.00  0.00  0.99  0.00  0.00  0.09  0.00
  WS02006112WS02006115    1.00   0.01  0.01  0.00  0.98  0.00  0.00  0.00  0.00  0.00
  WS02006111WS02006112    1.00   0.01  0.00  0.00  0.98  0.00  0.00  0.00  0.95  0.00
  WS02006110WS02006113    1.00   0.00  0.01  0.00  0.99  0.00  0.00  0.00  0.00  0.00
  WS02006109WS02006110    1.00   0.00  0.00  0.00  1.00  0.00  0.00  0.00  0.00  0.00
  WS02004411WS02004412    1.00   0.03  0.00  0.00  0.97  0.00  0.00  0.00  0.00  0.00
  WS02004401WS02004402    1.00   0.02  0.00  0.00  0.98  0.00  0.00  0.00  0.00  0.00
  WS02004413WS02003067    1.00   0.03  0.01  0.00  0.00  0.00  0.96  0.00  0.00  0.00
  WS02004412WS02004413    1.00   0.03  0.00  0.00  0.97  0.00  0.00  0.00  0.02  0.00
  WS02004410WS02004411    1.00   0.03  0.00  0.00  0.97  0.00  0.00  0.00  0.02  0.00
  WS02004409WS02004410    1.00   0.03  0.00  0.00  0.97  0.00  0.00  0.00  0.04  0.00
  WS02004407WS02004409    1.00   0.03  0.00  0.00  0.97  0.00  0.00  0.00  0.90  0.00
  WS02004406WS02004407    1.00   0.00  0.03  0.00  0.97  0.00  0.00  0.00  0.00  0.00
  WS02004405WS02004406    1.00   0.00  0.00  0.00  1.00  0.00  0.00  0.00  0.03  0.00
  WS02004404WS02004405    1.00   0.00  0.00  0.00  1.00  0.00  0.00  0.00  0.00  0.00
  WS02004403WS02004404    1.00   0.00  0.02  0.00  0.98  0.00  0.00  0.00  0.00  0.00
  WS02004402WS02004403    1.00   0.02  0.00  0.00  0.98  0.00  0.00  0.00  0.00  0.00
  WS02004139WS02001211    1.00   0.00  0.00  0.00  1.00  0.00  0.00  0.00  0.00  0.00
  WS02004138WS02004139    1.00   0.00  0.00  0.00  1.00  0.00  0.00  0.00  1.00  0.00
  WS02003067WS02003066    1.00   0.04  0.00  0.00  0.96  0.00  0.00  0.00  0.00  0.00
  WS02001213WS02003059    1.00   0.00  0.00  0.00  1.00  0.00  0.00  0.00  0.00  0.00
  WS02001212WS02001213    1.00   0.00  0.00  0.00  0.90  0.00  0.10  0.00  0.00  0.00
  WS02001211WS02001212    1.00   0.00  0.00  0.00  1.00  0.00  0.00  0.00  0.00  0.00
  WS02003072WS02003073    1.00   0.00  0.00  0.00  0.00  0.00  0.00  1.00  0.00  0.00
  WS02003069WS02003072    1.00   0.00  0.00  0.00  1.00  0.00  0.00  0.00  0.19  0.00
  WS02003060WS02003069    1.00   0.00  0.00  0.00  1.00  0.00  0.00  0.00  0.10  0.00
  WS02003059WS02003060    1.00   0.00  0.00  0.00  1.00  0.00  0.00  0.00  0.01  0.00
  HS02004901HS02004770    1.00   0.04  0.00  0.00  0.96  0.00  0.00  0.00  0.00  0.00
  HS02004876HS02004881    1.00   0.00  0.00  0.00  1.00  0.00  0.00  0.00  0.00  0.00
  HS02004870HS02004876    1.00   0.00  0.00  0.00  1.00  0.00  0.00  0.00  0.95  0.00
  HS02004842HS02004848    1.00   0.00  0.04  0.00  0.96  0.00  0.00  0.00  0.61  0.00
  HS02004837HS02004842    1.00   0.00  0.00  0.00  1.00  0.00  0.00  0.00  0.11  0.00
  HS02004830HS02004837    1.00   0.00  0.00  0.00  1.00  0.00  0.00  0.00  0.99  0.00
  HS02004824HS02004830    1.00   0.00  0.00  0.00  1.00  0.00  0.00  0.00  0.00  0.00
  HS02004817HS02004824    1.00   0.00  0.00  0.00  1.00  0.00  0.00  0.00  1.00  0.00
  HS02004770HS02004777    1.00   0.00  0.04  0.00  0.96  0.00  0.00  0.00  0.03  0.00
  HS02004799HS02004480    1.00   0.00  0.01  0.00  0.96  0.00  0.03  0.00  0.00  0.00
  HS02004792HS02004799    1.00   0.00  0.00  0.00  1.00  0.00  0.00  0.00  0.98  0.00
  HS02004788HS02004792    1.00   0.00  0.00  0.00  1.00  0.00  0.00  0.00  0.98  0.00
  HS02004785HS02004788    1.00   0.00  0.00  0.00  1.00  0.00  0.00  0.00  0.00  0.00
  HS02004777HS02004785    1.00   0.00  0.00  0.00  1.00  0.00  0.00  0.00  0.13  0.00
  HS02004480HS02004478    1.00   0.04  0.00  0.00  0.67  0.00  0.00  0.29  0.00  0.00
  HS02004479HS02004480    1.00   0.01  0.00  0.00  0.99  0.00  0.00  0.00  0.12  0.00
  HS02004862HS02004870    1.00   0.00  0.00  0.00  1.00  0.00  0.00  0.00  0.06  0.00
  HS02004848HS02004852    1.00   0.04  0.00  0.00  0.96  0.00  0.00  0.00  0.69  0.00
  HS02004856HS02004862    1.00   0.00  0.05  0.00  0.95  0.00  0.00  0.00  0.81  0.00
  HS02004852HS02004856    1.00   0.04  0.00  0.00  0.96  0.00  0.00  0.00  0.86  0.00
  HS02004802HS02004478    1.00   0.04  0.00  0.00  0.96  0.00  0.00  0.00  0.03  0.00
  HS02004478WS02006287    1.00   0.04  0.00  0.00  0.75  0.21  0.00  0.00  0.77  0.00
  HS02004817HS02004807    1.00   0.00  0.04  0.00  0.96  0.00  0.00  0.00  0.01  0.00
  HS02004807HS02004802    1.00   0.04  0.00  0.00  0.96  0.00  0.00  0.00  0.00  0.00
  YS02001759YS02001757    1.00   0.00  0.00  0.00  1.00  0.00  0.00  0.00  0.16  0.00
  YS02001762YS02001759    1.00   0.00  0.00  0.00  1.00  0.00  0.00  0.00  0.03  0.00
  YS02001765YS02001762    1.00   0.00  0.00  0.00  1.00  0.00  0.00  0.00  0.15  0.00
  YS02001770YS02001767    1.00   0.00  0.00  0.00  1.00  0.00  0.00  0.00  0.00  0.00
  YS02001774YS02001770    1.00   0.00  0.04  0.00  0.96  0.00  0.00  0.00  0.03  0.00
  YS02001779YS02001774    1.00   0.00  0.00  0.00  1.00  0.00  0.00  0.00  0.21  0.00
  YS02001649YS02001757    1.00   0.00  0.00  0.00  1.00  0.00  0.00  0.00  0.16  0.00
  YS02001767YS02001765    1.00   0.00  0.00  0.00  1.00  0.00  0.00  0.00  0.01  0.00
  YS02006561YS02001783    1.00   0.05  0.00  0.00  0.07  0.88  0.00  0.00  0.64  0.00
  YS02001783YS02001784    1.00   0.00  0.05  0.00  0.95  0.00  0.00  0.00  0.01  0.00
  YS02001784YS02001785    1.00   0.00  0.00  0.00  1.00  0.00  0.00  0.00  0.19  0.00
  YS02001788YS02001790    1.00   0.00  0.00  0.00  0.13  0.87  0.00  0.00  0.60  0.00
  YS02001790YS02001791    1.00   0.00  0.00  0.00  0.09  0.91  0.00  0.00  0.67  0.00
  YS02001791YS02001793    1.00   0.00  0.00  0.00  0.10  0.90  0.00  0.00  0.01  0.00
  YS02001910YS02001907    1.00   0.00  0.00  0.00  1.00  0.00  0.00  0.00  0.12  0.00
  YS02001786YS02001788    1.00   0.00  0.00  0.00  0.13  0.87  0.00  0.00  0.00  0.00
  YS02001915YS02001910    1.00   0.00  0.00  0.00  0.99  0.01  0.00  0.00  0.18  0.00
  YS02001918YS02001915    1.00   0.00  0.00  0.00  1.00  0.00  0.00  0.00  0.69  0.00
  YS02001923YS02001920    1.00   0.00  0.00  0.00  1.00  0.00  0.00  0.00  1.00  0.00
  YS02001926YS02001923    1.00   0.00  0.03  0.00  0.00  0.00  0.97  0.00  0.00  0.00
  YS02001929YS02001926    1.00   0.00  0.04  0.00  0.96  0.00  0.00  0.00  0.87  0.00
  YS02001920YS02001918    1.00   0.00  0.00  0.00  1.00  0.00  0.00  0.00  0.00  0.00
  YS02001629YS02163301    1.00   0.04  0.00  0.00  0.96  0.00  0.00  0.00  0.00  0.00
  YS02001619YS02001622    1.00   0.04  0.00  0.00  0.96  0.00  0.00  0.00  0.00  0.00
  YS02001622YS02001625    1.00   0.04  0.00  0.00  0.96  0.00  0.00  0.00  0.07  0.00
  YS02001625YS02001629    1.00   0.04  0.01  0.00  0.93  0.00  0.02  0.00  0.00  0.00
  YS02163301YS02001633    1.00   0.00  0.04  0.00  0.96  0.00  0.00  0.00  0.00  0.00
  YS02163601YS02164001    1.00   0.00  0.03  0.00  0.97  0.00  0.00  0.00  0.00  0.00
  YS02164001YS02001641    1.00   0.00  0.03  0.00  0.97  0.00  0.00  0.00  0.06  0.00
  YS02001641YS02001644    1.00   0.00  0.00  0.00  1.00  0.00  0.00  0.00  0.00  0.00
  YS02001647YS02001649    1.00   0.00  0.05  0.00  0.95  0.00  0.00  0.00  0.01  0.00
  YS02006553YS02006556    1.00   0.00  0.00  0.00  1.00  0.00  0.00  0.00  0.03  0.00
  YS02006556YS02006558    1.00   0.00  0.00  0.00  1.00  0.00  0.00  0.00  0.00  0.00
  YSB6556YSB1171          1.00   0.01  0.02  0.00  0.96  0.00  0.00  0.00  0.00  0.00
  YS02001907YS02006553    1.00   0.00  0.00  0.00  1.00  0.00  0.00  0.00  0.00  0.00
  YS02006558YS02006561    1.00   0.05  0.00  0.00  0.00  0.95  0.00  0.00  0.60  0.00
  YS02001633YS02163601    1.00   0.00  0.00  0.00  1.00  0.00  0.00  0.00  0.15  0.00
  YS02001644YS02001647    1.00   0.00  0.05  0.00  0.95  0.00  0.00  0.00  0.00  0.00
  YS02001745YS02001748    1.00   0.00  0.00  0.00  0.88  0.01  0.00  0.11  0.08  0.00
  YS02001748YS02001751    1.00   0.00  0.00  0.00  0.97  0.03  0.00  0.00  0.16  0.00
  YS02001751YS02001754    1.00   0.00  0.00  0.00  0.95  0.00  0.00  0.05  0.02  0.00
  YS02001754YS02001757    1.00   0.00  0.00  0.00  1.00  0.00  0.00  0.00  0.20  0.00
  YS02001882YS02001884    1.00   0.04  0.00  0.00  0.96  0.00  0.00  0.00  0.00  0.00
  YS02001884YS02001887    1.00   0.03  0.01  0.00  0.97  0.00  0.00  0.00  0.00  0.00
  YS02001890YS02001895    1.00   0.00  0.04  0.00  0.96  0.00  0.00  0.00  0.00  0.00
  YS02001895YS02001898    1.00   0.04  0.00  0.00  0.95  0.00  0.01  0.00  0.00  0.00
  YS02001898YS02001901    1.00   0.04  0.00  0.00  0.96  0.00  0.00  0.00  0.03  0.00
  YS02001901YS02001904    1.00   0.04  0.00  0.00  0.96  0.00  0.00  0.00  0.00  0.00
  YS02001904YS02001907    1.00   0.00  0.04  0.00  0.96  0.00  0.00  0.00  0.00  0.00
  YS02001887YS02001890    1.00   0.00  0.00  0.00  0.99  0.00  0.00  0.00  0.00  0.00
  YS02001652YS02001649    1.00   0.00  0.00  0.00  1.00  0.00  0.00  0.00  0.18  0.00
  YS02001655YS02001652    1.00   0.00  0.00  0.00  0.95  0.00  0.00  0.05  0.02  0.00
  YS02001658YS02001655    1.00   0.00  0.04  0.00  0.93  0.03  0.00  0.00  0.12  0.00
  YS02001661YS02001658    1.00   0.04  0.00  0.00  0.87  0.09  0.00  0.00  0.17  0.00
  YS02001664YS02001661    1.00   0.04  0.00  0.00  0.83  0.14  0.00  0.00  0.35  0.00
  YSB1154YSB6556          1.00   0.04  0.00  0.00  0.96  0.00  0.00  0.00  0.02  0.00
  YSB1174YSB1171          1.00   0.02  0.01  0.00  0.97  0.00  0.00  0.00  0.00  0.00
  YSB1171HS02004479       1.00   0.01  0.00  0.00  0.98  0.00  0.00  0.01  0.10  0.00
  HS02004881HS02006253    1.00   0.02  0.00  0.00  0.85  0.02  0.00  0.11  0.71  0.00
  YS02001793JiankangQianchi    1.00   0.00  0.00  0.00  0.26  0.74  0.00  0.00  0.17  0.00
  YS02001757CaochengTiaoxuchi    1.00   0.00  0.07  0.00  0.93  0.00  0.00  0.00  0.00  0.00
  WSF200WS02003060        1.00   0.00  0.04  0.00  0.81  0.16  0.00  0.00  0.15  0.00
  1                       1.00   0.00  0.00  0.00  0.00  1.00  0.00  0.00  0.32  0.00
  2                       1.00   0.35  0.00  0.00  0.00  0.65  0.00  0.00  0.10  0.00
  3                       1.00   0.04  0.00  0.00  0.00  0.96  0.00  0.00  0.19  0.00
  4                       1.00   1.00  0.00  0.00  0.00  0.00  0.00  0.00  0.00  0.00
  
  
  *************************
  Conduit Surcharge Summary
  *************************
  
  ----------------------------------------------------------------------------
                                                           Hours        Hours 
                         --------- Hours Full --------   Above Full   Capacity
  Conduit                Both Ends  Upstream  Dnstream   Normal Flow   Limited
  ----------------------------------------------------------------------------
  WS02006229WS02006228        3.78      4.13      3.78      5.80         3.78
  WS02006256WS02006235        6.15      6.15      7.65      1.93         0.01
  WS02006252WS02006251        3.13      3.13      4.31      4.01         0.01
  WS02006251WS02006249        0.01      0.01      0.01      3.14         0.01
  WS02006249WS02006248        0.01      0.01      0.01      5.33         0.01
  WS02006247WS02006245        0.01      0.01      0.01      5.57         0.01
  WS02006245WS02006243        0.01      0.01      0.40      0.01         0.01
  WS02006243WS02006242        0.52      0.52      3.00      0.01         0.01
  WS02006242WS02006240        0.81      0.81      3.50      4.27         0.01
  WS02006240WS02006239        1.30      1.30      1.43      0.01         0.01
  WS02006239WS02006238        3.36      3.36      3.54      0.07         0.10
  WS02006238WS02006235        3.35      3.35      3.94      0.01         0.01
  WS02006235WS02006234        0.76      0.76      3.06      6.18         0.01
  WS02006234WS02006232        1.32      1.32      4.09      0.01         0.01
  WS02006232WS02006231        0.22      0.22      4.09      0.01         0.01
  WS02006231WS02006230        0.01      0.01      0.45      6.18         0.01
  WS02006230WS02006229        5.14      5.63      5.14      6.29         5.14
  WS02006228WS02006109        3.95      4.65      3.95      5.98         3.95
  WS02006112WS02006115        0.01      0.01      0.75      0.01         0.01
  WS02006111WS02006112        0.01      0.01      5.83      0.01         0.01
  WS02006110WS02006113        0.01      0.01      4.36      0.01         0.01
  WS02006109WS02006110        0.63      0.63      4.65      0.63         0.01
  WS02004405WS02004406        0.01      0.01      0.01      0.69         0.01
  WS02004404WS02004405        0.01      0.01      0.01      5.99         0.01
  WS02003072WS02003073        0.01      0.01      0.01      5.70         0.01
  YS02001759YS02001757        5.54      5.54      5.64      0.01         0.01
  YS02001762YS02001759        5.50      5.50      5.54      0.01         0.01
  YS02001765YS02001762        5.47      5.47      5.50      0.01         0.01
  YS02001770YS02001767        5.43      5.43      5.43      0.01         0.60
  YS02001774YS02001770        5.40      5.40      5.49      0.01         0.01
  YS02001779YS02001774        5.07      5.07      5.49      0.01         0.01
  YS02001649YS02001757        5.51      5.51      5.64      0.01         0.01
  YS02001767YS02001765        5.43      5.43      5.47      0.01         0.01
  YS02001784YS02001785        0.01      0.01      0.01      1.19         0.01
  YS02001788YS02001790        0.01      0.01      0.42      0.01         0.01
  YS02001790YS02001791        0.42      0.42      0.46      0.01         0.01
  YS02001791YS02001793        0.45      0.45      0.57      0.01         0.01
  YS02001910YS02001907        0.01      0.01      0.25      0.01         0.01
  YS02001786YS02001788        0.01      0.01      0.01      0.60         0.01
  YS02001629YS02163301        5.39      5.39      5.43      0.01         0.01
  YS02001619YS02001622        4.47      4.47      4.64      0.01         0.03
  YS02001622YS02001625        4.63      4.63      5.25      0.01         0.01
  YS02001625YS02001629        4.47      4.47      5.25      0.01         0.01
  YS02163301YS02001633        5.43      5.43      5.47      0.01         0.01
  YS02163601YS02164001        5.47      5.47      5.51      0.01         0.01
  YS02164001YS02001641        5.47      5.47      5.48      0.01         0.01
  YS02001641YS02001644        5.48      5.48      5.48      0.01         0.90
  YS02001647YS02001649        5.23      5.23      5.51      0.01         0.01
  YS02006553YS02006556        0.01      0.01      0.38      0.01         0.01
  YS02006556YS02006558        0.01      0.01      0.51      0.01         0.01
  YS02001907YS02006553        1.12      1.12      1.35      0.01         0.01
  YS02006558YS02006561        0.01      0.01      0.01      0.94         0.01
  YS02001633YS02163601        5.46      5.46      5.51      0.01         0.01
  YS02001644YS02001647        5.23      5.23      5.48      0.01         0.01
  YS02001745YS02001748        0.01      0.01      2.77      0.01         0.01
  YS02001748YS02001751        3.44      3.44      4.55      0.01         0.01
  YS02001751YS02001754        4.55      4.55      5.10      0.01         0.01
  YS02001754YS02001757        5.20      5.20      5.64      0.01         0.01
  YS02001904YS02001907        0.01      0.01      0.43      0.01         0.01
  YS02001652YS02001649        5.23      5.23      5.51      0.01         0.01
  YS02001655YS02001652        4.63      4.63      5.19      0.01         0.01
  YS02001658YS02001655        2.82      2.82      4.63      0.01         0.01
  YS02001661YS02001658        0.01      0.01      2.82      0.01         0.01
  YS02001664YS02001661        0.01      0.01      0.23      0.01         0.01
  YS02001793JiankangQianchi        0.54      0.54      1.66      0.01         0.01
  YS02001757CaochengTiaoxuchi        3.97      3.97      5.64      0.01         0.01
  
  
  ***************
  Pumping Summary
  ***************
  
  ---------------------------------------------------------------------------------------------------------
                                                  Min       Avg       Max     Total     Power    % Time Off
                        Percent   Number of      Flow      Flow      Flow    Volume     Usage    Pump Curve
  Pump                 Utilized   Start-Ups       LPS       LPS       LPS  10^6 ltr     Kw-hr    Low   High
  ---------------------------------------------------------------------------------------------------------
  CC-Pump-1               75.60           2      0.00    158.09    200.00     3.386      7.23    0.0   15.2
  CC-Pump-2               75.60           3      0.00    151.84    200.00     3.266      7.07    0.0   15.2
  JK-Pump-1               93.62           2      0.00    175.99    300.00     3.722     61.41    0.0    0.0
  JK-Pump-2               95.74           3      0.00    171.55    300.00     3.827     65.39    0.0    0.0
  XR-Pump-1               91.48           7      0.00     70.29     95.00     1.796     18.45    0.0    0.0
  XR-Pump-2               93.61           6      0.00     78.89     95.00     2.109     22.69    0.0    0.0
  XR-Pump-3               93.60           8      0.00     66.25     95.00     1.767     17.79    0.0    0.0
  XR-Pump-4               87.21           5      0.00     79.79     95.00     1.909     15.84    0.0    0.0
  

  Analysis begun on:  Sat Dec 25 18:37:30 2021
  Analysis ended on:  Sat Dec 25 18:37:34 2021
  Total elapsed time: 00:00:04