
  EPA STORM WATER MANAGEMENT MODEL - VERSION 5.1 (Build 5.3.0.dev0)
  --------------------------------------------------------------

  WARNING 04: minimum elevation drop used for Conduit WS02004404WS02004405
  WARNING 03: negative offset ignored for Link YS02001904YS02001907
  
  *********************************************************
  NOTE: The summary statistics displayed in this report are
  based on results found at every computational time step,  
  not just on results from each reporting time step.
  *********************************************************
  
  ****************
  Analysis Options
  ****************
  Flow Units ............... LPS
  Process Models:
    Rainfall/Runoff ........ YES
    RDII ................... NO
    Snowmelt ............... NO
    Groundwater ............ NO
    Flow Routing ........... YES
    Ponding Allowed ........ NO
    Water Quality .......... NO
  Infiltration Method ...... HORTON
  Flow Routing Method ...... DYNWAVE
  Surcharge Method ......... EXTRAN
  Starting Date ............ 08/28/2015 08:00:00
  Ending Date .............. 08/28/2015 15:50:00
  Antecedent Dry Days ...... 8.0
  Report Time Step ......... 00:01:00
  Wet Time Step ............ 00:01:00
  Dry Time Step ............ 00:01:00
  Routing Time Step ........ 5.00 sec
  Variable Time Step ....... YES
  Maximum Trials ........... 8
  Number of Threads ........ 4
  Head Tolerance ........... 0.001500 m
  
  
  **************************        Volume         Depth
  Runoff Quantity Continuity     hectare-m            mm
  **************************     ---------       -------
  Total Precipitation ......         1.890         4.138
  Evaporation Loss .........         0.000         0.000
  Infiltration Loss ........         0.466         1.020
  Surface Runoff ...........         0.625         1.369
  Final Storage ............         0.799         1.749
  Continuity Error (%) .....        -0.017
  
  
  **************************        Volume        Volume
  Flow Routing Continuity        hectare-m      10^6 ltr
  **************************     ---------     ---------
  Dry Weather Inflow .......         0.616         6.165
  Wet Weather Inflow .......         0.625         6.250
  Groundwater Inflow .......         0.000         0.000
  RDII Inflow ..............         0.000         0.000
  External Inflow ..........         0.102         1.024
  External Outflow .........         0.646         6.457
  Flooding Loss ............         0.450         4.496
  Evaporation Loss .........         0.000         0.000
  Exfiltration Loss ........         0.000         0.000
  Initial Stored Volume ....         0.076         0.761
  Final Stored Volume ......         0.335         3.349
  Continuity Error (%) .....        -0.733
  
  
  *************************
  Highest Continuity Errors
  *************************
  Node HS02004842 (37.09%)
  Node YS02001884 (31.33%)
  Node YS02001774 (17.32%)
  Node YSB1171 (10.74%)
  Node HS02004901 (8.99%)
  
  
  ***************************
  Time-Step Critical Elements
  ***************************
  Link WS02006252WS02006251 (59.86%)
  Link 3 (25.99%)
  Link WS02006280WS02006229 (5.86%)
  Link WS02006238WS02006235 (2.50%)
  
  
  ********************************
  Highest Flow Instability Indexes
  ********************************
  Link WS02006113WS02006111 (49)
  Link WS02006111WS02006112 (7)
  Link YS02001754YS02001757 (4)
  Link YS02001652YS02001649 (3)
  Link YS02001649YS02001757 (3)
  
  
  *************************
  Routing Time Step Summary
  *************************
  Minimum Time Step           :     0.19 sec
  Average Time Step           :     1.25 sec
  Maximum Time Step           :     5.00 sec
  Percent in Steady State     :    -0.00
  Average Iterations per Step :     2.04
  Percent Not Converging      :     0.21
  
  
  ***************************
  Subcatchment Runoff Summary
  ***************************
  
  ------------------------------------------------------------------------------------------------------------------------------
                            Total      Total      Total      Total     Imperv       Perv      Total       Total     Peak  Runoff
                           Precip      Runon       Evap      Infil     Runoff     Runoff     Runoff      Runoff   Runoff   Coeff
  Subcatchment                 mm         mm         mm         mm         mm         mm         mm    10^6 ltr      LPS
  ------------------------------------------------------------------------------------------------------------------------------
  sub0                       4.14       0.00       0.00       0.29       2.58       0.00       2.58        0.00     0.74   0.624
  sub1                       4.14       0.00       0.00       0.46       2.43       0.00       2.43        0.02     3.84   0.587
  sub2                       4.14       0.00       0.00       1.53       1.70       0.00       1.70        0.02     3.39   0.412
  sub3                       4.14       0.00       0.00       1.53       1.67       0.00       1.67        0.04     6.95   0.404
  sub4                       4.14       0.00       0.00       0.46       2.30       0.00       2.30        0.05     7.78   0.557
  sub5                       4.14       0.00       0.00       0.29       2.54       0.00       2.54        0.03     6.83   0.613
  sub7                       4.14       0.00       0.00       0.37       2.51       0.00       2.51        0.01     2.42   0.607
  sub8                       4.14       0.00       0.00       0.37       2.50       0.00       2.50        0.02     4.26   0.605
  sub9                       4.14       0.00       0.00       0.37       2.50       0.00       2.50        0.01     3.16   0.604
  sub10                      4.14       0.00       0.00       0.33       2.52       0.00       2.52        0.03     6.82   0.608
  sub11                      4.14       0.00       0.00       0.33       2.53       0.00       2.53        0.03     8.02   0.612
  sub12                      4.14       0.00       0.00       0.54       2.41       0.00       2.41        0.02     6.83   0.583
  sub14                      4.14       0.00       0.00       0.37       2.50       0.00       2.50        0.02     6.17   0.604
  sub15                      4.14       0.00       0.00       1.24       1.92       0.00       1.92        0.03     8.36   0.464
  sub16                      4.14       0.00       0.00       1.37       1.85       0.00       1.85        0.02     5.99   0.448
  sub17                      4.14       0.00       0.00       1.32       1.88       0.00       1.88        0.02     4.84   0.454
  sub22                      4.14       0.00       0.00       1.78       1.57       0.00       1.57        0.10    27.45   0.380
  sub23                      4.14       0.00       0.00       1.53       1.74       0.00       1.74        0.08    23.39   0.420
  sub60                      4.14       0.00       0.00       0.50       1.49       0.00       1.49        0.45    38.23   0.360
  sub61                      4.14       0.00       0.00       0.70       1.65       0.00       1.65        0.51    48.94   0.398
  sub62                      4.14       0.00       0.00       0.33       1.75       0.00       1.75        0.54    49.85   0.422
  sub63                      4.14       0.00       0.00       1.20       1.48       0.00       1.48        0.45    45.77   0.359
  sub64                      4.14       0.00       0.00       0.62       1.42       0.00       1.42        0.43    36.23   0.343
  sub65                      4.14       0.00       0.00       0.54       1.43       0.00       1.43        0.44    36.68   0.346
  sub66                      4.14       0.00       0.00       1.20       1.25       0.00       1.25        0.38    33.51   0.302
  sub67                      4.14       0.00       0.00       0.33       1.98       0.00       1.98        0.61    64.41   0.478
  sub68                      4.14       0.00       0.00       0.58       1.76       0.00       1.76        0.54    54.19   0.426
  sub69                      4.14       0.00       0.00       0.62       1.96       0.00       1.96        0.46    54.10   0.475
  sub70                      4.14       2.00       0.00       2.09       2.24       0.00       2.24        0.51    39.90   0.365
  sub71                      4.14       0.00       0.00       0.33       1.65       0.00       1.65        0.39    34.54   0.399
  sub72                      4.14       0.00       0.00       0.29       1.09       0.00       1.09        0.22    15.48   0.263
  sub73                      4.14       2.18       0.00       2.15       2.17       0.00       2.17        0.51    34.04   0.344
  sub74                      4.14       0.00       0.00       3.10       0.60       0.00       0.60        0.24    30.24   0.145
  
  
  ******************
  Node Depth Summary
  ******************
  
  ---------------------------------------------------------------------------------
                                 Average  Maximum  Maximum  Time of Max    Reported
                                   Depth    Depth      HGL   Occurrence   Max Depth
  Node                 Type       Meters   Meters   Meters  days hr:min      Meters
  ---------------------------------------------------------------------------------
  WS02001211           JUNCTION     0.44     0.51     5.35     0  05:13        0.51
  WS02001212           JUNCTION     0.20     0.26     5.33     0  05:12        0.26
  WS02001213           JUNCTION     0.42     0.51     5.27     0  05:08        0.51
  WS02003069           JUNCTION     0.26     0.35     4.94     0  04:28        0.35
  WS02003072           JUNCTION     0.33     0.43     4.80     0  05:09        0.43
  WS02003073           JUNCTION     0.19     0.25     4.31     0  05:10        0.25
  WS02003060           JUNCTION     0.24     0.32     5.25     0  04:27        0.32
  WS02003066           JUNCTION     0.18     0.25     5.80     0  02:53        0.25
  WS02003059           JUNCTION     0.50     0.58     5.26     0  05:08        0.58
  WS02003067           JUNCTION     0.46     0.62     5.94     0  02:53        0.62
  WS02004401           JUNCTION     0.52     0.71     6.71     0  02:49        0.71
  WS02004402           JUNCTION     0.56     0.74     6.70     0  02:49        0.74
  WS02004403           JUNCTION     0.58     0.77     6.70     0  02:50        0.77
  WS02004404           JUNCTION     0.66     0.84     6.69     0  02:50        0.84
  WS02004406           JUNCTION     0.67     0.85     6.68     0  02:50        0.85
  WS02004409           JUNCTION     0.33     0.53     6.30     0  02:51        0.52
  WS02004410           JUNCTION     0.36     0.55     6.27     0  02:52        0.55
  WS02004411           JUNCTION     0.38     0.56     6.24     0  02:52        0.56
  WS02004412           JUNCTION     0.41     0.58     6.22     0  02:52        0.58
  WS02004413           JUNCTION     0.57     0.75     6.22     0  02:52        0.75
  WS02004405           JUNCTION     0.66     0.84     6.69     0  02:50        0.84
  WS02006109           JUNCTION     0.59     0.80     7.42     0  04:16        0.80
  WS02006110           JUNCTION     0.60     0.79     7.38     0  04:17        0.79
  WS02006111           JUNCTION     0.16     0.24     6.95     0  04:17        0.24
  WS02006112           JUNCTION     0.67     0.88     6.77     0  02:48        0.88
  WS02006113           JUNCTION     0.24     0.37     7.27     0  04:17        0.37
  WS02006115           JUNCTION     0.41     0.60     6.74     0  02:49        0.60
  WS02006116           JUNCTION     0.49     0.68     6.72     0  02:49        0.68
  WS02006230           JUNCTION     0.50     0.79     7.53     0  04:16        0.79
  WS02006231           JUNCTION     0.33     0.53     7.66     0  04:16        0.53
  WS02006232           JUNCTION     0.45     0.69     7.72     0  04:16        0.69
  WS02006234           JUNCTION     0.34     0.61     7.77     0  04:15        0.61
  WS02006235           JUNCTION     0.37     0.65     7.81     0  04:15        0.65
  WS02006238           JUNCTION     0.40     0.68     7.82     0  04:15        0.68
  WS02006240           JUNCTION     0.29     0.58     7.88     0  04:14        0.58
  WS02006242           JUNCTION     0.35     0.65     7.92     0  04:14        0.65
  WS02006243           JUNCTION     0.23     0.53     7.95     0  04:14        0.52
  WS02006245           JUNCTION     0.23     0.52     8.00     0  04:11        0.52
  WS02006247           JUNCTION     0.25     0.55     8.05     0  04:11        0.55
  WS02006248           JUNCTION     0.21     0.51     8.09     0  04:11        0.51
  WS02006249           JUNCTION     0.25     0.55     8.15     0  04:11        0.55
  WS02006239           JUNCTION     0.35     0.64     7.85     0  04:14        0.64
  WS02006251           JUNCTION     0.24     0.58     8.25     0  04:10        0.57
  WS02006252           JUNCTION     0.22     0.59     8.83     0  04:10        0.58
  WS02006253           JUNCTION     0.26     0.61     8.25     0  04:10        0.60
  WS02006256           JUNCTION     0.79     1.12     8.05     0  04:20        1.12
  WS02004138           JUNCTION     0.06     0.10     7.35     0  00:01        0.10
  WS02004407           JUNCTION     0.15     0.24     6.55     0  02:50        0.24
  WS02006228           JUNCTION     0.57     0.80     7.45     0  04:16        0.80
  WS02006229           JUNCTION     0.53     0.78     7.47     0  04:16        0.78
  WS02006280           JUNCTION     0.04     0.11     8.38     0  02:26        0.11
  WS02006284           JUNCTION     0.33     0.43     8.83     0  02:26        0.43
  WS02006287           JUNCTION     0.06     0.16     9.11     0  02:25        0.16
  WSF200               JUNCTION     0.14     0.23     5.46     0  02:53        0.23
  HS02004901           JUNCTION     0.10     0.18    10.01     0  02:23        0.18
  HS02004881           JUNCTION     0.00     0.02     9.04     0  02:24        0.02
  HS02004876           JUNCTION     0.03     0.08     9.11     0  02:24        0.08
  HS02004870           JUNCTION     0.01     0.03     9.31     0  02:25        0.03
  HS02004862           JUNCTION     0.01     0.03     9.41     0  02:27        0.03
  HS02004856           JUNCTION     0.07     0.09     9.52     0  02:25        0.09
  HS02004852           JUNCTION     0.00     0.02     9.53     0  02:27        0.02
  HS02004848           JUNCTION     0.00     0.02     9.62     0  02:24        0.02
  HS02004842           JUNCTION     0.32     0.35     9.62     0  02:24        0.35
  HS02004837           JUNCTION     0.02     0.04     9.62     0  02:24        0.04
  HS02004830           JUNCTION     0.03     0.05     9.52     0  02:24        0.05
  HS02004824           JUNCTION     0.02     0.03     9.43     0  02:28        0.03
  HS02004817           JUNCTION     0.41     0.48     9.33     0  02:26        0.48
  HS02004807           JUNCTION     0.10     0.16     9.33     0  02:26        0.16
  HS02004802           JUNCTION     0.14     0.20     9.33     0  02:26        0.20
  HS02004799           JUNCTION     0.08     0.19     9.40     0  02:24        0.19
  HS02004792           JUNCTION     0.02     0.06     9.59     0  02:23        0.06
  HS02004788           JUNCTION     0.01     0.05     9.95     0  02:24        0.05
  HS02004785           JUNCTION     0.02     0.10    10.00     0  02:24        0.10
  HS02004777           JUNCTION     0.12     0.20    10.00     0  02:24        0.20
  HS02004770           JUNCTION     0.09     0.17    10.01     0  02:24        0.17
  HS02004480           JUNCTION     0.05     0.14     9.38     0  02:24        0.14
  HS02004479           JUNCTION     0.09     0.18     9.38     0  02:24        0.18
  HS02004478           JUNCTION     0.04     0.09     9.32     0  02:25        0.09
  YS02001745           JUNCTION     0.06     0.08     7.60     0  03:01        0.08
  YS02001748           JUNCTION     0.22     0.35     7.43     0  06:24        0.35
  YS02001751           JUNCTION     0.39     0.54     7.42     0  06:24        0.54
  YS02001754           JUNCTION     0.63     0.82     7.43     0  06:26        0.82
  YS02001762           JUNCTION     0.82     1.01     7.41     0  06:25        1.01
  YS02001765           JUNCTION     0.78     0.96     7.41     0  06:24        0.96
  YS02001767           JUNCTION     0.74     0.92     7.41     0  06:25        0.92
  YS02001770           JUNCTION     0.74     0.91     7.41     0  06:24        0.91
  YS02001774           JUNCTION     0.80     0.98     7.41     0  06:25        0.98
  YS02001779           JUNCTION     0.56     0.73     7.41     0  06:26        0.72
  YS02001882           JUNCTION     0.21     0.33     7.04     0  03:01        0.33
  YS02001884           JUNCTION     0.30     0.43     7.04     0  03:01        0.43
  YS02001759           JUNCTION     0.85     1.04     7.41     0  06:25        1.04
  YS02001887           JUNCTION     0.38     0.50     7.04     0  03:01        0.50
  YS02001890           JUNCTION     0.41     0.54     7.04     0  03:01        0.54
  YS02001898           JUNCTION     0.19     0.29     7.03     0  03:01        0.29
  YS02001901           JUNCTION     0.30     0.42     7.03     0  03:02        0.42
  YS02001904           JUNCTION     0.28     0.39     7.02     0  03:02        0.39
  YS02001907           JUNCTION     0.60     0.74     7.03     0  03:01        0.74
  YS02001910           JUNCTION     0.40     0.52     7.03     0  03:01        0.52
  YS02001915           JUNCTION     0.20     0.31     7.02     0  03:02        0.31
  YS02001918           JUNCTION     0.06     0.07     7.14     0  03:05        0.07
  YS02001619           JUNCTION     0.35     0.49     7.42     0  06:25        0.48
  YS02001629           JUNCTION     0.68     0.86     7.41     0  06:24        0.86
  YS02001641           JUNCTION     0.79     0.98     7.41     0  06:23        0.97
  YS02001644           JUNCTION     0.79     0.98     7.41     0  06:23        0.98
  YS02001652           JUNCTION     0.64     0.83     7.42     0  06:24        0.82
  YS02001655           JUNCTION     0.42     0.57     7.42     0  06:25        0.57
  YS02001920           JUNCTION     0.14     0.16     7.17     0  03:04        0.16
  YS02001923           JUNCTION     0.05     0.06     7.32     0  03:02        0.06
  YS02001926           JUNCTION     0.11     0.13     7.58     0  03:02        0.13
  YS02001929           JUNCTION     0.05     0.06     7.76     0  03:01        0.06
  YS02001658           JUNCTION     0.17     0.28     7.42     0  06:26        0.28
  YS02001661           JUNCTION     0.12     0.16     7.57     0  02:57        0.16
  YS02001664           JUNCTION     0.05     0.08     8.01     0  02:57        0.08
  YS02001622           JUNCTION     0.37     0.50     7.41     0  06:25        0.50
  YS02001633           JUNCTION     0.77     0.96     7.41     0  06:26        0.96
  YS02001649           JUNCTION     0.83     1.02     7.41     0  06:25        1.02
  YS02001757           JUNCTION     0.95     1.15     7.41     0  06:25        1.15
  YS02001895           JUNCTION     0.18     0.29     7.04     0  03:01        0.29
  YS02001625           JUNCTION     0.64     0.81     7.42     0  06:26        0.81
  YS02163301           JUNCTION     0.71     0.90     7.41     0  06:26        0.89
  YS02163601           JUNCTION     0.83     1.01     7.41     0  06:25        1.01
  YS02164001           JUNCTION     0.77     0.95     7.41     0  06:25        0.95
  YS02001647           JUNCTION     0.63     0.80     7.41     0  06:27        0.80
  YSB1154              JUNCTION     0.22     0.33     9.39     0  02:24        0.33
  YSB6556              JUNCTION     0.12     0.22     9.39     0  02:24        0.22
  YSB1174              JUNCTION     0.17     0.28     9.39     0  02:24        0.28
  YSB1171              JUNCTION     0.37     0.48     9.39     0  02:24        0.48
  YS02006553           JUNCTION     0.61     0.74     7.02     0  03:02        0.74
  YS02006561           JUNCTION     0.10     0.16     6.82     0  03:02        0.16
  YS02006556           JUNCTION     0.58     0.71     7.02     0  03:02        0.71
  YS02006558           JUNCTION     0.63     0.76     7.02     0  03:02        0.76
  YS02001783           JUNCTION     0.17     0.52     6.66     0  03:30        0.51
  YS02001784           JUNCTION     0.21     0.59     6.66     0  03:30        0.58
  YS02001786           JUNCTION     0.18     0.62     6.65     0  03:30        0.61
  YS02001788           JUNCTION     0.13     0.66     6.64     0  03:30        0.66
  YS02001790           JUNCTION     0.18     0.98     6.63     0  03:30        0.98
  YS02001791           JUNCTION     0.16     1.14     6.61     0  03:30        1.14
  YS02001793           JUNCTION     0.26     1.77     6.61     0  03:30        1.77
  WS02004139           JUNCTION     0.37     0.45     5.36     0  05:13        0.45
  WSC                  OUTFALL      0.19     0.25     0.92     0  05:10        0.25
  3                    OUTFALL      0.03     0.11     6.11     0  04:20        0.11
  4                    OUTFALL      0.00     0.05     7.05     0  04:11        0.05
  5                    OUTFALL      0.00     0.00     5.00     0  00:00        0.00
  JK-storage           STORAGE      2.31     5.80     6.60     0  03:28        5.80
  CC-storage           STORAGE      0.26     0.40     7.40     0  06:24        0.40
  XR-storage           STORAGE      7.64     7.72     5.72     0  00:44        7.72
  
  
  *******************
  Node Inflow Summary
  *******************
  
  -------------------------------------------------------------------------------------------------
                                  Maximum  Maximum                  Lateral       Total        Flow
                                  Lateral    Total  Time of Max      Inflow      Inflow     Balance
                                   Inflow   Inflow   Occurrence      Volume      Volume       Error
  Node                 Type           LPS      LPS  days hr:min    10^6 ltr    10^6 ltr     Percent
  -------------------------------------------------------------------------------------------------
  WS02001211           JUNCTION      7.35   103.05     0  05:17       0.207        1.79       1.355
  WS02001212           JUNCTION      0.00   103.45     0  05:16           0        1.77       0.628
  WS02001213           JUNCTION      0.00   103.79     0  05:16           0        1.76       0.938
  WS02003069           JUNCTION      0.32   390.03     0  04:27     0.00902        5.77       0.335
  WS02003072           JUNCTION      0.00   389.42     0  04:28           0        5.75       0.442
  WS02003073           JUNCTION      1.82   390.99     0  05:09      0.0514        5.78       0.463
  WS02003060           JUNCTION     16.53   390.26     0  04:27       0.466        5.79       0.327
  WS02003066           JUNCTION      0.00   350.61     0  02:53           0        3.61       0.104
  WS02003059           JUNCTION      0.00   105.95     0  05:16           0        1.76       1.756
  WS02003067           JUNCTION      0.00   350.55     0  02:52           0        3.62       0.227
  WS02004401           JUNCTION      0.00   365.41     0  02:48           0        3.83       0.500
  WS02004402           JUNCTION      0.00   363.08     0  02:48           0        3.81       0.478
  WS02004403           JUNCTION      0.00   361.76     0  02:49           0        3.79       0.441
  WS02004404           JUNCTION      0.16   361.09     0  02:49     0.00457        3.78       0.338
  WS02004406           JUNCTION      0.00   360.20     0  02:49           0        3.75       0.833
  WS02004409           JUNCTION      0.00   359.77     0  02:50           0        3.71       0.359
  WS02004410           JUNCTION      0.00   357.13     0  02:50           0         3.7       0.415
  WS02004411           JUNCTION      0.00   354.54     0  02:51           0        3.68       0.434
  WS02004412           JUNCTION      0.00   352.74     0  02:51           0        3.67       0.480
  WS02004413           JUNCTION      0.00   351.24     0  02:52           0        3.65       0.735
  WS02004405           JUNCTION      0.04   360.72     0  02:49     0.00107        3.77       0.508
  WS02006109           JUNCTION      1.23   378.02     0  04:16      0.0347        3.92       0.397
  WS02006110           JUNCTION      0.00   378.00     0  04:17           0         3.9       0.481
  WS02006111           JUNCTION      0.00   384.15     0  04:17           0        3.88       0.097
  WS02006112           JUNCTION      4.84   377.56     0  04:17      0.0161        3.89       0.700
  WS02006113           JUNCTION      0.00   377.57     0  04:17           0        3.88       0.202
  WS02006115           JUNCTION      0.00   372.57     0  02:47           0        3.86       0.464
  WS02006116           JUNCTION      0.00   368.52     0  02:48           0        3.84       0.402
  WS02006230           JUNCTION     10.28   365.23     0  04:14        0.29        3.29       0.247
  WS02006231           JUNCTION      0.00   357.70     0  04:15           0        3.01       0.427
  WS02006232           JUNCTION      0.00   358.67     0  04:15           0        3.02       0.468
  WS02006234           JUNCTION      0.00   359.24     0  04:15           0        3.03       0.196
  WS02006235           JUNCTION      0.00   362.95     0  04:13           0         3.1       0.295
  WS02006238           JUNCTION      0.00   294.61     0  04:12           0        1.86       0.123
  WS02006240           JUNCTION      0.00   323.54     0  04:12           0        1.81       0.572
  WS02006242           JUNCTION      0.00   333.42     0  04:11           0        1.79       0.736
  WS02006243           JUNCTION      0.00   341.70     0  04:11           0        1.78       0.124
  WS02006245           JUNCTION      0.00   345.96     0  04:11           0        1.79       0.800
  WS02006247           JUNCTION      0.00   350.35     0  04:10           0         1.8       0.430
  WS02006248           JUNCTION      0.00   354.16     0  04:10           0         1.8       0.003
  WS02006249           JUNCTION      0.00   383.54     0  04:10           0        1.82       0.893
  WS02006239           JUNCTION      0.00   308.80     0  04:12           0        1.83       0.130
  WS02006251           JUNCTION      0.08   399.84     0  04:10     0.00217        1.85       0.421
  WS02006252           JUNCTION      0.00   399.51     0  04:10           0        1.74       0.029
  WS02006253           JUNCTION      0.74    24.89     0  04:05     0.00209       0.117       3.702
  WS02006256           JUNCTION      0.00   300.00     0  03:40           0           2       0.120
  WS02004138           JUNCTION      0.00    95.00     0  00:20           0         1.6       0.115
  WS02004407           JUNCTION      0.00   359.89     0  02:50           0        3.72       0.164
  WS02006228           JUNCTION      0.00   377.26     0  04:16           0         3.9       0.309
  WS02006229           JUNCTION      0.00   378.47     0  04:16           0        3.91       0.320
  WS02006280           JUNCTION      0.00   113.60     0  02:26           0       0.631       0.012
  WS02006284           JUNCTION      0.10   113.60     0  02:25      0.0027       0.632       0.181
  WS02006287           JUNCTION      0.00   113.51     0  02:25           0        0.63       0.110
  WSF200               JUNCTION      0.00   350.59     0  02:53           0        3.61       0.090
  HS02004901           JUNCTION      5.99     5.99     0  02:15      0.0194      0.0196       9.872
  HS02004881           JUNCTION      2.42    20.18     0  02:24     0.00846      0.0874       0.120
  HS02004876           JUNCTION      3.84    17.95     0  02:24      0.0161      0.0795       0.656
  HS02004870           JUNCTION      4.26    14.19     0  02:24       0.016      0.0635       0.167
  HS02004862           JUNCTION      3.59    10.22     0  02:25      0.0215      0.0476       0.350
  HS02004856           JUNCTION      3.16     6.66     0  02:24       0.012      0.0276       5.497
  HS02004852           JUNCTION      0.00     3.71     0  02:25           0      0.0156       0.307
  HS02004848           JUNCTION      6.95     6.95     0  02:27      0.0376      0.0376       0.113
  HS02004842           JUNCTION      0.00     4.49     0  00:03           0      0.0351      58.948
  HS02004837           JUNCTION     13.17    16.26     0  02:22       0.207       0.229       0.354
  HS02004830           JUNCTION      0.15    16.40     0  02:24     0.00423       0.219       0.564
  HS02004824           JUNCTION      7.83    24.13     0  02:28      0.0494       0.267       0.202
  HS02004817           JUNCTION      0.60    24.73     0  02:28      0.0169       0.284       6.234
  HS02004807           JUNCTION      8.02    32.05     0  02:26      0.0294       0.297       1.445
  HS02004802           JUNCTION      0.00    32.12     0  02:28           0       0.292       1.407
  HS02004799           JUNCTION      6.17    69.38     0  02:22      0.0238       0.307       0.737
  HS02004792           JUNCTION     27.73    63.38     0  02:22       0.107       0.284       0.148
  HS02004788           JUNCTION     10.03    37.07     0  02:24      0.0801       0.178       0.221
  HS02004785           JUNCTION      0.15    27.39     0  02:23     0.00423      0.0997       0.482
  HS02004777           JUNCTION      0.03    27.64     0  02:21    0.000846      0.0999       5.458
  HS02004770           JUNCTION     23.39    28.52     0  02:18      0.0828       0.101       3.178
  HS02004480           JUNCTION      0.00    81.67     0  02:24           0       0.354       0.191
  HS02004479           JUNCTION      0.00    12.56     0  02:26           0      0.0594       1.240
  HS02004478           JUNCTION      0.00   113.51     0  02:25           0       0.631       0.105
  YS02001745           JUNCTION     38.23    38.23     0  03:01       0.451       0.451       0.121
  YS02001748           JUNCTION      0.04    81.62     0  04:44     0.00127       0.588       0.534
  YS02001751           JUNCTION      0.01   104.50     0  04:50     0.00031       0.585       1.841
  YS02001754           JUNCTION      0.26    98.17     0  04:36     0.00733       0.553       3.412
  YS02001762           JUNCTION      0.00    59.02     0  03:51           0       0.485       4.316
  YS02001765           JUNCTION      0.00    66.14     0  03:50           0       0.483       4.827
  YS02001767           JUNCTION      0.54    57.66     0  02:36      0.0151         0.5       6.756
  YS02001770           JUNCTION     50.00    57.82     0  02:36       0.541       0.598       4.762
  YS02001774           JUNCTION      0.00    31.04     0  02:32           0       0.134      20.944
  YS02001779           JUNCTION      0.01    22.10     0  04:40    0.000141      0.0538      25.609
  YS02001882           JUNCTION      0.00     2.12     0  02:13           0     0.00339      72.950
  YS02001884           JUNCTION      0.00     6.35     0  02:08           0      0.0138      45.621
  YS02001759           JUNCTION     48.98   102.33     0  03:02       0.508       0.958       2.385
  YS02001887           JUNCTION     64.86    64.86     0  02:54       0.623       0.629       1.057
  YS02001890           JUNCTION      0.00    64.57     0  02:57           0       0.611       1.201
  YS02001898           JUNCTION      0.00    64.33     0  03:00           0         0.6       0.304
  YS02001901           JUNCTION      0.00    64.31     0  03:01           0         0.6       0.831
  YS02001904           JUNCTION      0.00    64.22     0  03:02           0         0.6       0.776
  YS02001907           JUNCTION      0.00   116.88     0  03:02           0        1.28       1.685
  YS02001910           JUNCTION      0.00    52.77     0  03:01           0       0.687       1.394
  YS02001915           JUNCTION     34.56    52.70     0  03:01        0.39       0.691       0.565
  YS02001918           JUNCTION      0.00    18.35     0  03:04           0       0.301       0.273
  YS02001619           JUNCTION     33.51    33.51     0  03:01       0.384       0.384       1.200
  YS02001629           JUNCTION      0.00    40.06     0  04:53           0       0.343       4.685
  YS02001641           JUNCTION      0.00    67.90     0  03:08           0       0.703       2.852
  YS02001644           JUNCTION     36.27   101.00     0  02:59       0.432        1.11       2.215
  YS02001652           JUNCTION      0.00    62.79     0  03:49           0       0.533       3.373
  YS02001655           JUNCTION      0.15    80.18     0  04:58     0.00434       0.548       2.154
  YS02001920           JUNCTION      2.87    18.37     0  03:02      0.0809       0.303       0.561
  YS02001923           JUNCTION      0.04    15.50     0  03:02     0.00106       0.222       0.099
  YS02001926           JUNCTION      0.05    15.52     0  03:01     0.00147       0.223       0.721
  YS02001929           JUNCTION     15.48    15.48     0  03:01       0.221       0.221       0.094
  YS02001658           JUNCTION      0.00    59.65     0  04:47           0       0.547       0.620
  YS02001661           JUNCTION      0.00    45.77     0  02:57           0       0.449       0.149
  YS02001664           JUNCTION     45.77    45.77     0  02:57       0.449       0.449       0.033
  YS02001622           JUNCTION      0.00    33.99     0  02:50           0       0.379       3.720
  YS02001633           JUNCTION     36.88    70.73     0  02:40       0.446       0.753       3.990
  YS02001649           JUNCTION      0.00   153.18     0  03:14           0        1.57       2.273
  YS02001757           JUNCTION      0.00   304.46     0  03:16           0        2.87       3.282
  YS02001895           JUNCTION      0.00    64.38     0  02:59           0       0.603       0.515
  YS02001625           JUNCTION      0.00    35.74     0  02:50           0       0.371       8.267
  YS02163301           JUNCTION      0.00    41.77     0  04:10           0       0.329       6.662
  YS02163601           JUNCTION      0.11    72.34     0  02:41      0.0031       0.724       4.108
  YS02164001           JUNCTION      0.00    69.98     0  04:10           0       0.704       2.651
  YS02001647           JUNCTION      0.00   102.17     0  03:08           0        1.07       2.107
  YSB1154              JUNCTION      6.83     6.83     0  02:21      0.0287      0.0302       5.030
  YSB6556              JUNCTION      0.00     6.77     0  02:24           0      0.0312       4.153
  YSB1174              JUNCTION      6.83     6.83     0  02:14      0.0211      0.0221       6.175
  YSB1171              JUNCTION      0.00    12.57     0  02:23           0      0.0588      12.031
  YS02006553           JUNCTION      0.00   117.02     0  03:03           0        1.26       1.098
  YS02006561           JUNCTION      0.00   171.20     0  03:02           0        1.78       0.029
  YS02006556           JUNCTION      0.00   117.17     0  03:04           0        1.27       0.786
  YS02006558           JUNCTION     55.07   171.22     0  03:02       0.567        1.81       0.237
  YS02001783           JUNCTION      0.00   171.20     0  03:02           0        1.78       0.066
  YS02001784           JUNCTION      1.06   172.25     0  03:02      0.0299        1.81       0.114
  YS02001786           JUNCTION      0.06   172.82     0  03:31     0.00159        1.81       0.112
  YS02001788           JUNCTION      0.07   197.42     0  03:39       0.002        1.81       0.060
  YS02001790           JUNCTION      0.15   233.43     0  03:40     0.00437        1.82       0.072
  YS02001791           JUNCTION      0.00   248.81     0  03:40           0        1.81       0.024
  YS02001793           JUNCTION      0.00   333.12     0  04:03           0        1.84       0.009
  WS02004139           JUNCTION      0.32    95.62     0  00:01     0.00905        1.61       1.475
  WSC                  OUTFALL       0.00   390.74     0  05:10           0        5.75       0.000
  3                    OUTFALL       0.00   192.25     0  04:20           0       0.704       0.000
  4                    OUTFALL       0.00    27.85     0  04:11           0     0.00378       0.000
  5                    OUTFALL       0.00     0.00     0  00:00           0           0       0.000 ltr
  JK-storage           STORAGE       0.00   386.82     0  04:02           0        1.99      -4.141
  CC-storage           STORAGE       0.00   264.02     0  03:10           0        2.67       0.718
  XR-storage           STORAGE     262.77   262.77     0  03:01        6.39        6.99      -0.003
  
  
  **********************
  Node Surcharge Summary
  **********************
  
  Surcharging occurs when water rises above the top of the highest conduit.
  ---------------------------------------------------------------------
                                               Max. Height   Min. Depth
                                   Hours       Above Crown    Below Rim
  Node                 Type      Surcharged         Meters       Meters
  ---------------------------------------------------------------------
  WS02006252           JUNCTION        0.13          0.185        0.915
  YS02001762           JUNCTION        0.21          0.007        1.143
  YS02001759           JUNCTION        1.70          0.043        1.167
  YS02001649           JUNCTION        0.73          0.018        1.032
  YS02001757           JUNCTION        4.14          0.149        1.061
  YS02163601           JUNCTION        0.31          0.011        1.069
  YS02001790           JUNCTION        0.22          0.185        0.972
  YS02001791           JUNCTION        0.31          0.344        1.576
  YS02001793           JUNCTION        0.68          0.774        1.826
  
  
  *********************
  Node Flooding Summary
  *********************
  
  Flooding refers to all water that overflows a node, whether it ponds or not.
  --------------------------------------------------------------------------
                                                             Total   Maximum
                                 Maximum   Time of Max       Flood    Ponded
                        Hours       Rate    Occurrence      Volume     Depth
  Node                 Flooded       LPS   days hr:min    10^6 ltr    Meters
  --------------------------------------------------------------------------
  JK-storage              0.08    150.35      0  03:31       0.029     0.000
  XR-storage              7.10    261.61      0  02:50       4.467     0.000
  
  
  **********************
  Storage Volume Summary
  **********************
  
  --------------------------------------------------------------------------------------------------
                         Average     Avg  Evap Exfil       Maximum     Max    Time of Max    Maximum
                          Volume    Pcnt  Pcnt  Pcnt        Volume    Pcnt     Occurrence    Outflow
  Storage Unit           1000 m3    Full  Loss  Loss       1000 m3    Full    days hr:min        LPS
  --------------------------------------------------------------------------------------------------
  JK-storage               0.116      40     0     0         0.291     100       0  03:28     304.45
  CC-storage               0.728       5     0     0         1.113       7       0  06:24     399.51
  XR-storage               0.917      99     0     0         0.926     100       0  00:44      95.00
  
  
  ***********************
  Outfall Loading Summary
  ***********************
  
  -----------------------------------------------------------
                         Flow       Avg       Max       Total
                         Freq      Flow      Flow      Volume
  Outfall Node           Pcnt       LPS       LPS    10^6 ltr
  -----------------------------------------------------------
  WSC                  100.00    227.97    390.74       5.749
  3                     39.95    101.91    192.25       0.704
  4                      1.61     11.33     27.85       0.004
  5                      0.00      0.00      0.00       0.000
  -----------------------------------------------------------
  System                35.39    341.21    462.58       6.457
  
  
  ********************
  Link Flow Summary
  ********************
  
  -----------------------------------------------------------------------------
                                 Maximum  Time of Max   Maximum    Max/    Max/
                                  |Flow|   Occurrence   |Veloc|    Full    Full
  Link                 Type          LPS  days hr:min     m/sec    Flow   Depth
  -----------------------------------------------------------------------------
  WS02003066WSF200     CONDUIT    350.59     0  02:53      2.57    0.06    0.18
  WS02006287WS02006284 CONDUIT    113.50     0  02:25      1.31    0.05    0.17
  WS02006284WS02006280 CONDUIT    113.60     0  02:26      1.56    0.05    0.15
  WS02006280WS02006229 CONDUIT    113.60     0  02:26      2.50    0.02    0.11
  WS02006229WS02006228 CONDUIT    377.26     0  04:16      0.76    1.25    0.97
  WS02006256WS02006235 CONDUIT    149.96     0  00:15      2.14    1.59    1.00
  WS02006253WS02006251 CONDUIT     24.97     0  02:43      0.38    0.07    0.84
  WS02006252WS02006251 CONDUIT    399.76     0  04:10      3.18    1.47    1.00
  WS02006251WS02006249 CONDUIT    383.54     0  04:10      1.16    1.11    0.80
  WS02006249WS02006248 CONDUIT    354.16     0  04:10      1.17    1.94    0.74
  WS02006248WS02006247 CONDUIT    350.35     0  04:10      1.15    0.76    0.75
  WS02006247WS02006245 CONDUIT    345.96     0  04:11      1.13    2.74    0.76
  WS02006245WS02006243 CONDUIT    341.70     0  04:11      1.18    1.01    0.73
  WS02006243WS02006242 CONDUIT    333.42     0  04:11      1.06    0.71    0.82
  WS02006242WS02006240 CONDUIT    323.54     0  04:12      0.99    1.28    0.87
  WS02006240WS02006239 CONDUIT    308.80     0  04:12      1.05    0.97    0.85
  WS02006239WS02006238 CONDUIT    294.61     0  04:12      0.92    0.94    0.93
  WS02006238WS02006235 CONDUIT    281.69     0  04:12      0.90    0.63    0.95
  WS02006235WS02006234 CONDUIT    359.24     0  04:15      1.06    3.79    0.88
  WS02006234WS02006232 CONDUIT    358.67     0  04:15      0.96    0.73    0.93
  WS02006232WS02006231 CONDUIT    357.70     0  04:15      1.02    0.75    0.86
  WS02006231WS02006230 CONDUIT    354.95     0  04:14      1.36    5.38    0.67
  WS02006230WS02006229 CONDUIT    360.39     0  04:16      0.94    8.02    1.00
  WS02006228WS02006109 CONDUIT    376.79     0  04:16      0.75    1.65    0.99
  WS02006116WS02004401 CONDUIT    365.41     0  02:48      0.79    0.50    0.70
  WS02006115WS02006116 CONDUIT    368.52     0  02:48      0.94    0.47    0.61
  WS02006113WS02006111 CONDUIT    384.15     0  04:17      2.17    0.46    0.38
  WS02006112WS02006115 CONDUIT    372.57     0  02:47      0.67    0.22    0.74
  WS02006111WS02006112 CONDUIT    377.42     0  04:17      1.27    0.18    0.64
  WS02006110WS02006113 CONDUIT    377.57     0  04:17      0.96    0.34    0.73
  WS02006109WS02006110 CONDUIT    378.00     0  04:17      0.78    0.73    0.93
  WS02004411WS02004412 CONDUIT    352.74     0  02:51      0.76    0.50    0.57
  WS02004401WS02004402 CONDUIT    363.08     0  02:48      0.83    0.44    0.73
  WS02004413WS02003067 CONDUIT    350.55     0  02:52      0.88    0.15    0.50
  WS02004412WS02004413 CONDUIT    351.24     0  02:52      0.64    0.24    0.66
  WS02004410WS02004411 CONDUIT    354.54     0  02:51      0.80    0.48    0.55
  WS02004409WS02004410 CONDUIT    357.13     0  02:50      0.87    0.46    0.54
  WS02004407WS02004409 CONDUIT    359.77     0  02:50      1.35    0.13    0.38
  WS02004406WS02004407 CONDUIT    359.89     0  02:50      0.82    0.16    0.55
  WS02004405WS02004406 CONDUIT    360.20     0  02:49      0.77    0.71    0.84
  WS02004404WS02004405 CONDUIT    360.68     0  02:49      0.96    3.53    0.84
  WS02004403WS02004404 CONDUIT    360.93     0  02:49      0.85    0.26    0.80
  WS02004402WS02004403 CONDUIT    361.76     0  02:49      0.87    0.52    0.75
  WS02004139WS02001211 CONDUIT     95.70     0  05:17      0.53    0.12    0.36
  WS02004138WS02004139 CONDUIT     95.30     0  00:01      2.39    0.02    0.25
  WS02003067WS02003066 CONDUIT    350.61     0  02:53      0.95    0.11    0.36
  WS02001213WS02003059 CONDUIT    105.95     0  05:16      0.39    0.17    0.53
  WS02001212WS02001213 CONDUIT    103.79     0  05:16      0.82    0.16    0.22
  WS02001211WS02001212 CONDUIT    103.45     0  05:16      0.37    0.08    0.39
  WS02003072WS02003073 CONDUIT    389.16     0  05:09      1.27    0.84    0.32
  WS02003069WS02003072 CONDUIT    389.42     0  04:28      1.23    0.19    0.32
  WS02003060WS02003069 CONDUIT    389.71     0  04:27      1.51    0.15    0.28
  WS02003059WS02003060 CONDUIT    109.88     0  05:19      0.56    0.07    0.45
  HS02004901HS02004770 CONDUIT      5.41     0  02:22      0.03    0.02    0.25
  HS02004876HS02004881 CONDUIT     17.96     0  02:25      0.36    0.19    0.07
  HS02004870HS02004876 CONDUIT     14.18     0  02:25      0.26    0.01    0.08
  HS02004842HS02004848 CONDUIT      3.42     0  02:37      0.02    0.00    0.26
  HS02004837HS02004842 CONDUIT      4.49     0  00:03      0.42    0.00    0.27
  HS02004830HS02004837 CONDUIT     16.25     0  02:24      0.38    0.02    0.06
  HS02004824HS02004830 CONDUIT     16.40     0  02:25      0.42    0.02    0.06
  HS02004817HS02004824 CONDUIT     24.13     0  02:28      0.17    0.01    0.37
  HS02004770HS02004777 CONDUIT     27.61     0  02:21      0.15    0.05    0.27
  HS02004799HS02004480 CONDUIT     69.27     0  02:23      0.43    0.09    0.23
  HS02004792HS02004799 CONDUIT     63.35     0  02:23      0.50    0.04    0.18
  HS02004788HS02004792 CONDUIT     37.04     0  02:24      0.66    0.02    0.08
  HS02004785HS02004788 CONDUIT     27.28     0  02:24      0.38    0.21    0.10
  HS02004777HS02004785 CONDUIT     27.24     0  02:23      0.18    0.03    0.21
  HS02004480HS02004478 CONDUIT     81.67     0  02:24      0.74    0.34    0.16
  HS02004479HS02004480 CONDUIT     12.64     0  02:27      0.15    0.01    0.23
  HS02004862HS02004870 CONDUIT     10.19     0  02:26      0.36    0.01    0.04
  HS02004848HS02004852 CONDUIT      3.71     0  02:25      0.23    0.00    0.02
  HS02004856HS02004862 CONDUIT      6.65     0  02:25      0.26    0.01    0.04
  HS02004852HS02004856 CONDUIT      3.68     0  02:27      0.07    0.00    0.08
  HS02004802HS02004478 CONDUIT     32.25     0  02:29      0.23    0.03    0.21
  HS02004478WS02006287 CONDUIT    113.51     0  02:25      1.00    0.03    0.13
  HS02004817HS02004807 CONDUIT     24.94     0  02:30      0.08    0.01    0.46
  HS02004807HS02004802 CONDUIT     32.12     0  02:28      0.19    0.06    0.25
  YS02001759YS02001757 CONDUIT     99.48     0  03:02      0.14    0.07    1.00
  YS02001762YS02001759 CONDUIT     63.64     0  03:53      0.17    0.07    1.00
  YS02001765YS02001762 CONDUIT     59.02     0  03:51      0.22    0.06    0.98
  YS02001770YS02001767 CONDUIT     57.13     0  02:36      0.29    0.23    0.92
  YS02001774YS02001770 CONDUIT     31.04     0  02:32      0.12    0.02    0.93
  YS02001779YS02001774 CONDUIT     22.10     0  04:40      0.06    0.01    0.85
  YS02001649YS02001757 CONDUIT    151.45     0  02:58      0.21    0.09    1.00
  YS02001767YS02001765 CONDUIT     66.14     0  03:50      0.25    0.08    0.94
  YS02006561YS02001783 CONDUIT    171.20     0  03:02      1.52    0.09    0.42
  YS02001783YS02001784 CONDUIT    171.19     0  03:02      1.01    0.24    0.69
  YS02001784YS02001785 CONDUIT    172.76     0  03:31      1.05    0.40    0.75
  YS02001788YS02001790 CONDUIT    233.28     0  03:40      1.60    0.17    0.91
  YS02001790YS02001791 CONDUIT    248.81     0  03:40      1.85    0.27    1.00
  YS02001791YS02001793 CONDUIT    273.01     0  03:17      3.65    0.12    1.00
  YS02001910YS02001907 CONDUIT     52.77     0  03:04      0.49    0.03    0.62
  YS02001786YS02001788 CONDUIT    197.35     0  03:39      1.45    0.38    0.79
  YS02001915YS02001910 CONDUIT     52.77     0  03:01      0.44    0.03    0.41
  YS02001918YS02001915 CONDUIT     18.34     0  03:05      0.44    0.01    0.19
  YS02001923YS02001920 CONDUIT     15.50     0  03:02      0.32    0.01    0.11
  YS02001926YS02001923 CONDUIT     15.46     0  03:02      0.38    0.02    0.10
  YS02001929YS02001926 CONDUIT     15.47     0  03:01      0.39    0.01    0.10
  YS02001920YS02001918 CONDUIT     18.35     0  03:04      0.35    0.02    0.12
  YS02001629YS02163301 CONDUIT     41.77     0  04:10      0.09    0.05    0.88
  YS02001619YS02001622 CONDUIT     33.99     0  02:50      0.54    0.05    0.49
  YS02001622YS02001625 CONDUIT     35.74     0  02:50      0.18    0.02    0.66
  YS02001625YS02001629 CONDUIT     40.06     0  04:53      0.17    0.02    0.64
  YS02163301YS02001633 CONDUIT     41.29     0  04:12      0.08    0.04    0.93
  YS02163601YS02164001 CONDUIT     69.98     0  04:10      0.12    0.06    0.98
  YS02164001YS02001641 CONDUIT     67.90     0  03:08      0.11    0.09    0.96
  YS02001641YS02001644 CONDUIT     70.00     0  04:11      0.12    0.23    0.98
  YS02001647YS02001649 CONDUIT    103.17     0  04:11      0.18    0.05    0.90
  YS02006553YS02006556 CONDUIT    117.17     0  03:04      0.20    0.10    0.71
  YS02006556YS02006558 CONDUIT    117.28     0  03:04      0.19    0.09    0.73
  YSB6556YSB1171       CONDUIT      6.82     0  02:27      0.04    0.01    0.50
  YS02001907YS02006553 CONDUIT    117.02     0  03:03      0.16    0.14    0.80
  YS02006558YS02006561 CONDUIT    171.20     0  03:02      1.96    0.38    0.35
  YS02001633YS02163601 CONDUIT     72.23     0  02:41      0.13    0.08    0.97
  YS02001644YS02001647 CONDUIT    102.17     0  03:08      0.18    0.06    0.89
  YS02001745YS02001748 CONDUIT     38.22     0  03:01      1.19    0.01    0.16
  YS02001748YS02001751 CONDUIT    104.49     0  04:50      0.93    0.05    0.43
  YS02001751YS02001754 CONDUIT     66.49     0  03:40      0.85    0.03    0.66
  YS02001754YS02001757 CONDUIT     96.23     0  04:57      0.33    0.04    0.91
  YS02001882YS02001884 CONDUIT      2.12     0  02:13      0.06    0.00    0.35
  YS02001884YS02001887 CONDUIT      6.35     0  02:08      0.05    0.01    0.44
  YS02001890YS02001895 CONDUIT     64.38     0  02:59      0.21    0.03    0.41
  YS02001895YS02001898 CONDUIT     64.33     0  03:00      0.42    0.11    0.27
  YS02001898YS02001901 CONDUIT     64.31     0  03:01      0.26    0.04    0.35
  YS02001901YS02001904 CONDUIT     64.22     0  03:02      0.21    0.10    0.41
  YS02001904YS02001907 CONDUIT     64.42     0  03:02      0.14    0.02    0.57
  YS02001887YS02001890 CONDUIT     64.57     0  02:57      0.17    0.11    0.49
  YS02001652YS02001649 CONDUIT     83.57     0  04:48      0.26    0.04    0.91
  YS02001655YS02001652 CONDUIT     51.47     0  02:58      0.91    0.02    0.68
  YS02001658YS02001655 CONDUIT     80.02     0  04:58      1.07    0.03    0.41
  YS02001661YS02001658 CONDUIT     45.77     0  02:57      1.21    0.02    0.16
  YS02001664YS02001661 CONDUIT     45.77     0  02:57      0.82    0.01    0.12
  YSB1154YSB6556       CONDUIT      6.77     0  02:24      0.19    0.01    0.39
  YSB1174YSB1171       CONDUIT      6.29     0  02:18      0.03    0.01    0.51
  YSB1171HS02004479    CONDUIT     12.56     0  02:26      0.54    0.01    0.38
  HS02004881HS02006253 CONDUIT     20.18     0  02:24      1.29    0.00    0.19
  YS02001793JiankangQianchi CONDUIT    386.82     0  04:02     10.72    0.03    1.00
  YS02001757CaochengTiaoxuchi CONDUIT    264.02     0  03:10      0.67    0.12    0.70
  WSF200WS02003060     CONDUIT    350.66     0  02:53      1.90    0.08    0.22
  1                    CONDUIT    390.74     0  05:10      2.56    0.14    0.25
  2                    CONDUIT     27.85     0  04:11      3.35    0.07    0.18
  3                    CONDUIT    192.25     0  04:20      7.77    0.31    0.38
  4                    CONDUIT      0.00     0  00:00      0.00    0.00    0.00
  CC-Pump-1            PUMP       200.00     0  07:40              1.00
  CC-Pump-2            PUMP       199.99     0  03:10              1.00
  JK-Pump-1            PUMP       299.95     0  03:40              1.00
  JK-Pump-2            PUMP       300.00     0  04:40              1.00
  XR-Pump-1            PUMP        95.00     0  00:00              1.00
  XR-Pump-2            PUMP        95.00     0  07:40              1.00
  XR-Pump-3            PUMP        94.76     0  01:10              1.00
  XR-Pump-4            PUMP        94.95     0  06:20              1.00
  
  
  ***************************
  Flow Classification Summary
  ***************************
  
  -------------------------------------------------------------------------------------
                      Adjusted    ---------- Fraction of Time in Flow Class ---------- 
                       /Actual         Up    Down  Sub   Sup   Up    Down  Norm  Inlet 
  Conduit               Length    Dry  Dry   Dry   Crit  Crit  Crit  Crit  Ltd   Ctrl  
  -------------------------------------------------------------------------------------
  WS02003066WSF200        1.00   0.06  0.00  0.00  0.00  0.94  0.00  0.00  0.85  0.00
  WS02006287WS02006284    1.00   0.05  0.02  0.00  0.77  0.16  0.00  0.00  0.81  0.00
  WS02006284WS02006280    1.00   0.06  0.00  0.00  0.00  0.00  0.00  0.94  0.00  0.00
  WS02006280WS02006229    1.00   0.06  0.00  0.00  0.00  0.00  0.00  0.94  0.00  0.00
  WS02006229WS02006228    1.00   0.00  0.00  0.00  1.00  0.00  0.00  0.00  0.00  0.00
  WS02006256WS02006235    1.00   0.01  0.00  0.00  0.99  0.00  0.00  0.00  0.00  0.00
  WS02006253WS02006251    1.00   0.03  0.02  0.00  0.94  0.00  0.00  0.00  0.00  0.00
  WS02006252WS02006251    1.00   0.12  0.00  0.00  0.00  0.00  0.88  0.00  0.00  0.00
  WS02006251WS02006249    1.00   0.00  0.00  0.00  1.00  0.00  0.00  0.00  0.50  0.00
  WS02006249WS02006248    1.00   0.00  0.00  0.00  0.66  0.00  0.33  0.00  0.00  0.00
  WS02006248WS02006247    1.00   0.01  0.00  0.00  0.97  0.00  0.00  0.03  0.43  0.00
  WS02006247WS02006245    1.00   0.01  0.00  0.00  0.96  0.00  0.00  0.04  0.00  0.00
  WS02006245WS02006243    1.00   0.01  0.00  0.00  0.90  0.00  0.00  0.09  0.04  0.00
  WS02006243WS02006242    1.00   0.01  0.00  0.00  0.99  0.00  0.00  0.00  0.39  0.00
  WS02006242WS02006240    1.00   0.01  0.00  0.00  0.99  0.00  0.00  0.00  0.00  0.00
  WS02006240WS02006239    1.00   0.01  0.00  0.00  0.93  0.00  0.00  0.06  0.04  0.00
  WS02006239WS02006238    1.00   0.01  0.00  0.00  0.99  0.00  0.00  0.00  0.09  0.00
  WS02006238WS02006235    1.00   0.01  0.00  0.00  0.99  0.00  0.00  0.00  0.00  0.00
  WS02006235WS02006234    1.00   0.01  0.00  0.00  0.93  0.00  0.06  0.00  0.00  0.00
  WS02006234WS02006232    1.00   0.01  0.00  0.00  0.99  0.00  0.00  0.00  0.08  0.00
  WS02006232WS02006231    1.00   0.01  0.00  0.00  0.99  0.00  0.00  0.00  0.00  0.00
  WS02006231WS02006230    1.00   0.01  0.00  0.00  0.05  0.00  0.94  0.00  0.00  0.00
  WS02006230WS02006229    1.00   0.00  0.00  0.00  0.99  0.00  0.00  0.01  0.00  0.00
  WS02006228WS02006109    1.00   0.00  0.00  0.00  1.00  0.00  0.00  0.00  0.01  0.00
  WS02006116WS02004401    1.00   0.03  0.00  0.00  0.97  0.00  0.00  0.00  0.00  0.00
  WS02006115WS02006116    1.00   0.03  0.00  0.00  0.96  0.00  0.00  0.01  0.00  0.00
  WS02006113WS02006111    1.00   0.02  0.00  0.00  0.00  0.98  0.00  0.00  0.20  0.00
  WS02006112WS02006115    1.00   0.02  0.01  0.00  0.96  0.00  0.00  0.00  0.00  0.00
  WS02006111WS02006112    1.00   0.02  0.00  0.00  0.97  0.00  0.00  0.01  0.95  0.00
  WS02006110WS02006113    1.00   0.00  0.02  0.00  0.98  0.00  0.00  0.00  0.00  0.00
  WS02006109WS02006110    1.00   0.00  0.00  0.00  0.99  0.00  0.00  0.00  0.00  0.00
  WS02004411WS02004412    1.00   0.05  0.00  0.00  0.95  0.00  0.00  0.00  0.00  0.00
  WS02004401WS02004402    1.00   0.04  0.00  0.00  0.96  0.00  0.00  0.00  0.00  0.00
  WS02004413WS02003067    1.00   0.05  0.01  0.00  0.00  0.00  0.94  0.00  0.00  0.00
  WS02004412WS02004413    1.00   0.05  0.00  0.00  0.95  0.00  0.00  0.00  0.01  0.00
  WS02004410WS02004411    1.00   0.05  0.00  0.00  0.95  0.00  0.00  0.00  0.00  0.00
  WS02004409WS02004410    1.00   0.05  0.00  0.00  0.95  0.00  0.00  0.00  0.02  0.00
  WS02004407WS02004409    1.00   0.05  0.00  0.00  0.95  0.00  0.00  0.00  0.92  0.00
  WS02004406WS02004407    1.00   0.00  0.05  0.00  0.95  0.00  0.00  0.00  0.00  0.00
  WS02004405WS02004406    1.00   0.00  0.00  0.00  1.00  0.00  0.00  0.00  0.03  0.00
  WS02004404WS02004405    1.00   0.00  0.00  0.00  1.00  0.00  0.00  0.00  0.00  0.00
  WS02004403WS02004404    1.00   0.00  0.04  0.00  0.96  0.00  0.00  0.00  0.00  0.00
  WS02004402WS02004403    1.00   0.04  0.00  0.00  0.96  0.00  0.00  0.00  0.00  0.00
  WS02004139WS02001211    1.00   0.00  0.00  0.00  1.00  0.00  0.00  0.00  0.00  0.00
  WS02004138WS02004139    1.00   0.00  0.01  0.00  0.99  0.00  0.00  0.00  1.00  0.00
  WS02003067WS02003066    1.00   0.06  0.00  0.00  0.94  0.00  0.00  0.00  0.00  0.00
  WS02001213WS02003059    1.00   0.00  0.00  0.00  1.00  0.00  0.00  0.00  0.00  0.00
  WS02001212WS02001213    1.00   0.00  0.00  0.00  0.33  0.00  0.66  0.00  0.00  0.00
  WS02001211WS02001212    1.00   0.00  0.00  0.00  1.00  0.00  0.00  0.00  0.00  0.00
  WS02003072WS02003073    1.00   0.00  0.00  0.00  0.00  0.00  0.00  1.00  0.00  0.00
  WS02003069WS02003072    1.00   0.00  0.00  0.00  1.00  0.00  0.00  0.00  0.94  0.00
  WS02003060WS02003069    1.00   0.00  0.00  0.00  0.97  0.03  0.00  0.00  0.64  0.00
  WS02003059WS02003060    1.00   0.00  0.00  0.00  1.00  0.00  0.00  0.00  0.02  0.00
  HS02004901HS02004770    1.00   0.06  0.00  0.00  0.94  0.00  0.00  0.00  0.03  0.00
  HS02004876HS02004881    1.00   0.01  0.00  0.00  0.99  0.00  0.00  0.00  0.00  0.00
  HS02004870HS02004876    1.00   0.00  0.00  0.00  0.99  0.00  0.00  0.00  0.95  0.00
  HS02004842HS02004848    1.00   0.00  0.06  0.00  0.94  0.00  0.00  0.00  0.71  0.00
  HS02004837HS02004842    1.00   0.00  0.00  0.00  1.00  0.00  0.00  0.00  0.11  0.00
  HS02004830HS02004837    1.00   0.00  0.00  0.00  1.00  0.00  0.00  0.00  0.99  0.00
  HS02004824HS02004830    1.00   0.00  0.00  0.00  1.00  0.00  0.00  0.00  0.00  0.00
  HS02004817HS02004824    1.00   0.00  0.00  0.00  1.00  0.00  0.00  0.00  1.00  0.00
  HS02004770HS02004777    1.00   0.00  0.06  0.00  0.94  0.00  0.00  0.00  0.08  0.00
  HS02004799HS02004480    1.00   0.00  0.01  0.00  0.92  0.00  0.06  0.00  0.00  0.00
  HS02004792HS02004799    1.00   0.00  0.00  0.00  1.00  0.00  0.00  0.00  0.98  0.00
  HS02004788HS02004792    1.00   0.00  0.00  0.00  1.00  0.00  0.00  0.00  0.98  0.00
  HS02004785HS02004788    1.00   0.00  0.00  0.00  1.00  0.00  0.00  0.00  0.00  0.00
  HS02004777HS02004785    1.00   0.00  0.00  0.00  1.00  0.00  0.00  0.00  0.22  0.00
  HS02004480HS02004478    1.00   0.07  0.00  0.00  0.77  0.00  0.00  0.16  0.00  0.00
  HS02004479HS02004480    1.00   0.01  0.00  0.00  0.99  0.00  0.00  0.00  0.16  0.00
  HS02004862HS02004870    1.00   0.00  0.00  0.00  1.00  0.00  0.00  0.00  0.05  0.00
  HS02004848HS02004852    1.00   0.06  0.00  0.00  0.94  0.00  0.00  0.00  0.69  0.00
  HS02004856HS02004862    1.00   0.00  0.10  0.00  0.90  0.00  0.00  0.00  0.73  0.00
  HS02004852HS02004856    1.00   0.06  0.01  0.00  0.93  0.00  0.00  0.00  0.82  0.00
  HS02004802HS02004478    1.00   0.06  0.01  0.00  0.93  0.00  0.00  0.00  0.00  0.00
  HS02004478WS02006287    1.00   0.07  0.00  0.00  0.92  0.00  0.00  0.00  0.81  0.00
  HS02004817HS02004807    1.00   0.00  0.06  0.00  0.94  0.00  0.00  0.00  0.00  0.00
  HS02004807HS02004802    1.00   0.06  0.00  0.00  0.94  0.00  0.00  0.00  0.01  0.00
  YS02001759YS02001757    1.00   0.00  0.00  0.00  1.00  0.00  0.00  0.00  0.17  0.00
  YS02001762YS02001759    1.00   0.00  0.00  0.00  1.00  0.00  0.00  0.00  0.05  0.00
  YS02001765YS02001762    1.00   0.00  0.00  0.00  1.00  0.00  0.00  0.00  0.23  0.00
  YS02001770YS02001767    1.00   0.00  0.00  0.00  1.00  0.00  0.00  0.00  0.00  0.00
  YS02001774YS02001770    1.00   0.00  0.07  0.00  0.93  0.00  0.00  0.00  0.07  0.00
  YS02001779YS02001774    1.00   0.00  0.00  0.00  1.00  0.00  0.00  0.00  0.28  0.00
  YS02001649YS02001757    1.00   0.00  0.00  0.00  1.00  0.00  0.00  0.00  0.19  0.00
  YS02001767YS02001765    1.00   0.00  0.00  0.00  1.00  0.00  0.00  0.00  0.01  0.00
  YS02006561YS02001783    1.00   0.10  0.00  0.00  0.03  0.88  0.00  0.00  0.72  0.00
  YS02001783YS02001784    1.00   0.00  0.10  0.00  0.90  0.00  0.00  0.00  0.10  0.00
  YS02001784YS02001785    1.00   0.00  0.00  0.00  1.00  0.00  0.00  0.00  0.26  0.00
  YS02001788YS02001790    1.00   0.00  0.00  0.00  0.19  0.81  0.00  0.00  0.95  0.00
  YS02001790YS02001791    1.00   0.00  0.00  0.00  0.12  0.88  0.00  0.00  0.28  0.00
  YS02001791YS02001793    1.00   0.00  0.00  0.00  0.25  0.75  0.00  0.00  0.10  0.00
  YS02001910YS02001907    1.00   0.00  0.00  0.00  0.99  0.00  0.00  0.01  0.13  0.00
  YS02001786YS02001788    1.00   0.00  0.00  0.00  0.16  0.84  0.00  0.00  0.00  0.00
  YS02001915YS02001910    1.00   0.00  0.00  0.00  1.00  0.00  0.00  0.00  0.25  0.00
  YS02001918YS02001915    1.00   0.00  0.00  0.00  0.99  0.00  0.00  0.00  0.80  0.00
  YS02001923YS02001920    1.00   0.00  0.00  0.00  1.00  0.00  0.00  0.00  1.00  0.00
  YS02001926YS02001923    1.00   0.00  0.05  0.00  0.00  0.00  0.95  0.00  0.00  0.00
  YS02001929YS02001926    1.00   0.00  0.06  0.00  0.94  0.00  0.00  0.00  0.86  0.00
  YS02001920YS02001918    1.00   0.00  0.00  0.00  1.00  0.00  0.00  0.00  0.00  0.00
  YS02001629YS02163301    1.00   0.09  0.01  0.00  0.91  0.00  0.00  0.00  0.00  0.00
  YS02001619YS02001622    1.00   0.06  0.00  0.00  0.94  0.00  0.00  0.00  0.00  0.00
  YS02001622YS02001625    1.00   0.06  0.00  0.00  0.94  0.00  0.00  0.00  0.14  0.00
  YS02001625YS02001629    1.00   0.06  0.04  0.00  0.88  0.00  0.02  0.00  0.00  0.00
  YS02163301YS02001633    1.00   0.00  0.08  0.00  0.92  0.00  0.00  0.00  0.00  0.00
  YS02163601YS02164001    1.00   0.00  0.05  0.00  0.95  0.00  0.00  0.00  0.00  0.00
  YS02164001YS02001641    1.00   0.00  0.05  0.00  0.95  0.00  0.00  0.00  0.07  0.00
  YS02001641YS02001644    1.00   0.00  0.00  0.00  1.00  0.00  0.00  0.00  0.00  0.00
  YS02001647YS02001649    1.00   0.00  0.10  0.00  0.90  0.00  0.00  0.00  0.01  0.00
  YS02006553YS02006556    1.00   0.00  0.00  0.00  1.00  0.00  0.00  0.00  0.03  0.00
  YS02006556YS02006558    1.00   0.00  0.00  0.00  1.00  0.00  0.00  0.00  0.00  0.00
  YSB6556YSB1171          1.00   0.02  0.04  0.00  0.94  0.00  0.00  0.00  0.00  0.00
  YS02001907YS02006553    1.00   0.00  0.01  0.00  0.99  0.00  0.00  0.00  0.00  0.00
  YS02006558YS02006561    1.00   0.10  0.00  0.00  0.00  0.90  0.00  0.00  0.71  0.00
  YS02001633YS02163601    1.00   0.00  0.00  0.00  1.00  0.00  0.00  0.00  0.20  0.00
  YS02001644YS02001647    1.00   0.00  0.10  0.00  0.90  0.00  0.00  0.00  0.00  0.00
  YS02001745YS02001748    1.00   0.00  0.00  0.00  0.71  0.03  0.00  0.26  0.55  0.00
  YS02001748YS02001751    1.00   0.00  0.00  0.00  0.96  0.04  0.00  0.00  0.29  0.00
  YS02001751YS02001754    1.00   0.00  0.00  0.00  0.89  0.00  0.00  0.11  0.03  0.00
  YS02001754YS02001757    1.00   0.00  0.00  0.00  1.00  0.00  0.00  0.00  0.28  0.00
  YS02001882YS02001884    1.00   0.08  0.01  0.00  0.91  0.00  0.00  0.00  0.00  0.00
  YS02001884YS02001887    1.00   0.04  0.01  0.00  0.94  0.00  0.00  0.00  0.00  0.00
  YS02001890YS02001895    1.00   0.00  0.09  0.00  0.91  0.00  0.00  0.00  0.00  0.00
  YS02001895YS02001898    1.00   0.09  0.00  0.00  0.90  0.00  0.01  0.00  0.00  0.00
  YS02001898YS02001901    1.00   0.08  0.01  0.00  0.91  0.00  0.00  0.00  0.02  0.00
  YS02001901YS02001904    1.00   0.08  0.00  0.00  0.92  0.00  0.00  0.00  0.00  0.00
  YS02001904YS02001907    1.00   0.00  0.08  0.00  0.92  0.00  0.00  0.00  0.00  0.00
  YS02001887YS02001890    1.00   0.00  0.00  0.00  0.99  0.00  0.01  0.00  0.00  0.00
  YS02001652YS02001649    1.00   0.00  0.00  0.00  1.00  0.00  0.00  0.00  0.27  0.00
  YS02001655YS02001652    1.00   0.00  0.00  0.00  0.89  0.00  0.00  0.10  0.03  0.00
  YS02001658YS02001655    1.00   0.00  0.08  0.00  0.89  0.04  0.00  0.00  0.24  0.00
  YS02001661YS02001658    1.00   0.08  0.00  0.00  0.72  0.20  0.00  0.00  0.72  0.00
  YS02001664YS02001661    1.00   0.06  0.00  0.00  0.94  0.00  0.00  0.00  0.86  0.00
  YSB1154YSB6556          1.00   0.06  0.00  0.00  0.94  0.00  0.00  0.00  0.02  0.00
  YSB1174YSB1171          1.00   0.03  0.02  0.00  0.95  0.00  0.00  0.00  0.00  0.00
  YSB1171HS02004479       1.00   0.02  0.00  0.00  0.96  0.00  0.00  0.02  0.13  0.00
  HS02004881HS02006253    1.00   0.03  0.00  0.00  0.37  0.03  0.00  0.57  0.23  0.00
  YS02001793JiankangQianchi    1.00   0.00  0.00  0.00  0.75  0.25  0.00  0.00  0.52  0.00
  YS02001757CaochengTiaoxuchi    1.00   0.00  0.12  0.00  0.88  0.00  0.00  0.00  0.00  0.00
  WSF200WS02003060        1.00   0.00  0.06  0.00  0.24  0.70  0.00  0.00  0.51  0.00
  1                       1.00   0.00  0.00  0.00  0.00  1.00  0.00  0.00  0.22  0.00
  2                       1.00   0.98  0.00  0.00  0.00  0.02  0.00  0.00  0.01  0.00
  3                       1.00   0.60  0.00  0.00  0.00  0.40  0.00  0.00  0.19  0.00
  4                       1.00   1.00  0.00  0.00  0.00  0.00  0.00  0.00  0.00  0.00
  
  
  *************************
  Conduit Surcharge Summary
  *************************
  
  ----------------------------------------------------------------------------
                                                           Hours        Hours 
                         --------- Hours Full --------   Above Full   Capacity
  Conduit                Both Ends  Upstream  Dnstream   Normal Flow   Limited
  ----------------------------------------------------------------------------
  WS02006229WS02006228        0.01      0.01      0.01      0.39         0.01
  WS02006256WS02006235        4.44      4.44      6.67      2.35         0.01
  WS02006252WS02006251        0.05      0.05      0.13      0.11         0.01
  WS02006251WS02006249        0.01      0.01      0.01      0.04         0.01
  WS02006249WS02006248        0.01      0.01      0.01      1.06         0.01
  WS02006247WS02006245        0.01      0.01      0.01      1.96         0.01
  WS02006245WS02006243        0.01      0.01      0.01      0.02         0.01
  WS02006242WS02006240        0.01      0.01      0.01      0.11         0.01
  WS02006235WS02006234        0.01      0.01      0.01      4.39         0.01
  WS02006231WS02006230        0.01      0.01      0.01      4.64         0.01
  WS02006230WS02006229        0.17      0.25      0.17      5.27         0.17
  WS02006228WS02006109        0.01      0.01      0.01      1.50         0.01
  WS02006111WS02006112        0.01      0.01      0.37      0.01         0.01
  WS02006109WS02006110        0.01      0.01      0.02      0.01         0.01
  WS02004404WS02004405        0.01      0.01      0.01      4.84         0.01
  YS02001759YS02001757        1.70      1.70      4.14      0.01         0.01
  YS02001762YS02001759        0.21      0.21      1.70      0.01         0.01
  YS02001765YS02001762        0.01      0.01      0.21      0.01         0.01
  YS02001649YS02001757        0.72      0.72      4.14      0.01         0.01
  YS02001788YS02001790        0.01      0.01      0.22      0.01         0.01
  YS02001790YS02001791        0.22      0.22      0.31      0.01         0.01
  YS02001791YS02001793        0.31      0.31      0.81      0.01         0.01
  YS02163601YS02164001        0.01      0.01      0.31      0.01         0.01
  YS02001647YS02001649        0.01      0.01      0.72      0.01         0.01
  YS02001633YS02163601        0.01      0.01      0.31      0.01         0.01
  YS02001754YS02001757        0.01      0.01      4.14      0.01         0.01
  YS02001652YS02001649        0.01      0.01      0.72      0.01         0.01
  YS02001793JiankangQianchi        0.68      0.68      4.28      0.01         0.01
  YS02001757CaochengTiaoxuchi        0.01      0.01      4.14      0.01         0.01
  
  
  ***************
  Pumping Summary
  ***************
  
  ---------------------------------------------------------------------------------------------------------
                                                  Min       Avg       Max     Total     Power    % Time Off
                        Percent   Number of      Flow      Flow      Flow    Volume     Usage    Pump Curve
  Pump                 Utilized   Start-Ups       LPS       LPS       LPS  10^6 ltr     Kw-hr    Low   High
  ---------------------------------------------------------------------------------------------------------
  CC-Pump-1               25.52           5      0.00    114.55    200.00     0.780      2.63    0.0    8.3
  CC-Pump-2               33.88           7      0.00    107.17    199.99     0.958      3.33    0.0   30.9
  JK-Pump-1               25.53           4      0.00    115.45    299.95     0.553      7.30    0.0    0.0
  JK-Pump-2               42.53           7      0.00    144.54    300.00     1.446     17.19    0.0    0.0
  XR-Pump-1               72.33           7      0.00     57.04     95.00     1.226      6.20    0.0    0.0
  XR-Pump-2                8.50           2      0.00     61.67     95.00     0.142      0.63    0.0    0.0
  XR-Pump-3                8.50           2      0.00     47.10     94.76     0.114      0.50    0.0    0.0
  XR-Pump-4                8.52           2      0.00     47.29     94.95     0.114      0.68    0.0    0.0
  

  Analysis begun on:  Wed Jan  5 21:33:15 2022
  Analysis ended on:  Wed Jan  5 21:33:16 2022
  Total elapsed time: 00:00:01