
  EPA STORM WATER MANAGEMENT MODEL - VERSION 5.1 (Build 5.3.0.dev0)
  --------------------------------------------------------------

  WARNING 04: minimum elevation drop used for Conduit WS02004404WS02004405
  WARNING 03: negative offset ignored for Link YS02001904YS02001907
  
  *********************************************************
  NOTE: The summary statistics displayed in this report are
  based on results found at every computational time step,  
  not just on results from each reporting time step.
  *********************************************************
  
  ****************
  Analysis Options
  ****************
  Flow Units ............... LPS
  Process Models:
    Rainfall/Runoff ........ YES
    RDII ................... NO
    Snowmelt ............... NO
    Groundwater ............ NO
    Flow Routing ........... YES
    Ponding Allowed ........ NO
    Water Quality .......... NO
  Infiltration Method ...... HORTON
  Flow Routing Method ...... DYNWAVE
  Surcharge Method ......... EXTRAN
  Starting Date ............ 08/28/2015 08:00:00
  Ending Date .............. 08/28/2015 15:50:00
  Antecedent Dry Days ...... 8.0
  Report Time Step ......... 00:01:00
  Wet Time Step ............ 00:01:00
  Dry Time Step ............ 00:01:00
  Routing Time Step ........ 5.00 sec
  Variable Time Step ....... YES
  Maximum Trials ........... 8
  Number of Threads ........ 4
  Head Tolerance ........... 0.001500 m
  
  
  **************************        Volume         Depth
  Runoff Quantity Continuity     hectare-m            mm
  **************************     ---------       -------
  Total Precipitation ......         1.797         3.934
  Evaporation Loss .........         0.000         0.000
  Infiltration Loss ........         0.442         0.967
  Surface Runoff ...........         0.570         1.248
  Final Storage ............         0.785         1.719
  Continuity Error (%) .....        -0.017
  
  
  **************************        Volume        Volume
  Flow Routing Continuity        hectare-m      10^6 ltr
  **************************     ---------     ---------
  Dry Weather Inflow .......         0.616         6.165
  Wet Weather Inflow .......         0.570         5.698
  Groundwater Inflow .......         0.000         0.000
  RDII Inflow ..............         0.000         0.000
  External Inflow ..........         0.102         1.024
  External Outflow .........         0.639         6.393
  Flooding Loss ............         0.439         4.392
  Evaporation Loss .........         0.000         0.000
  Exfiltration Loss ........         0.000         0.000
  Initial Stored Volume ....         0.076         0.761
  Final Stored Volume ......         0.296         2.963
  Continuity Error (%) .....        -0.747
  
  
  *************************
  Highest Continuity Errors
  *************************
  Node HS02004842 (38.67%)
  Node YS02001884 (32.64%)
  Node YS02001774 (18.14%)
  Node YSB1171 (11.43%)
  Node HS02004901 (9.70%)
  
  
  ***************************
  Time-Step Critical Elements
  ***************************
  Link WS02006252WS02006251 (65.72%)
  Link 3 (20.44%)
  Link WS02006280WS02006229 (4.62%)
  Link WS02006238WS02006235 (1.70%)
  Link WS02003066WSF200 (1.55%)
  
  
  ********************************
  Highest Flow Instability Indexes
  ********************************
  Link WS02006113WS02006111 (57)
  Link WS02006111WS02006112 (6)
  Link YS02001754YS02001757 (4)
  Link YS02001762YS02001759 (4)
  Link YS02001751YS02001754 (4)
  
  
  *************************
  Routing Time Step Summary
  *************************
  Minimum Time Step           :     0.50 sec
  Average Time Step           :     1.31 sec
  Maximum Time Step           :     5.00 sec
  Percent in Steady State     :    -0.00
  Average Iterations per Step :     2.04
  Percent Not Converging      :     0.39
  
  
  ***************************
  Subcatchment Runoff Summary
  ***************************
  
  ------------------------------------------------------------------------------------------------------------------------------
                            Total      Total      Total      Total     Imperv       Perv      Total       Total     Peak  Runoff
                           Precip      Runon       Evap      Infil     Runoff     Runoff     Runoff      Runoff   Runoff   Coeff
  Subcatchment                 mm         mm         mm         mm         mm         mm         mm    10^6 ltr      LPS
  ------------------------------------------------------------------------------------------------------------------------------
  sub0                       3.93       0.00       0.00       0.28       2.39       0.00       2.39        0.00     0.73   0.608
  sub1                       3.93       0.00       0.00       0.43       2.25       0.00       2.25        0.01     3.65   0.572
  sub2                       3.93       0.00       0.00       1.46       1.58       0.00       1.58        0.01     3.20   0.400
  sub3                       3.93       0.00       0.00       1.46       1.54       0.00       1.54        0.03     6.50   0.393
  sub4                       3.93       0.00       0.00       0.43       2.13       0.00       2.13        0.04     7.20   0.540
  sub5                       3.93       0.00       0.00       0.28       2.35       0.00       2.35        0.03     6.50   0.597
  sub7                       3.93       0.00       0.00       0.35       2.33       0.00       2.33        0.01     2.33   0.591
  sub8                       3.93       0.00       0.00       0.35       2.32       0.00       2.32        0.01     4.09   0.589
  sub9                       3.93       0.00       0.00       0.35       2.32       0.00       2.32        0.01     3.03   0.589
  sub10                      3.93       0.00       0.00       0.31       2.33       0.00       2.33        0.03     6.51   0.592
  sub11                      3.93       0.00       0.00       0.31       2.35       0.00       2.35        0.03     7.71   0.596
  sub12                      3.93       0.00       0.00       0.51       2.23       0.00       2.23        0.02     6.64   0.568
  sub14                      3.93       0.00       0.00       0.35       2.31       0.00       2.31        0.02     5.91   0.588
  sub15                      3.93       0.00       0.00       1.18       1.78       0.00       1.78        0.03     8.00   0.452
  sub16                      3.93       0.00       0.00       1.30       1.72       0.00       1.72        0.02     5.81   0.437
  sub17                      3.93       0.00       0.00       1.26       1.74       0.00       1.74        0.01     4.68   0.443
  sub22                      3.93       0.00       0.00       1.69       1.45       0.00       1.45        0.09    26.40   0.370
  sub23                      3.93       0.00       0.00       1.46       1.61       0.00       1.61        0.08    22.54   0.409
  sub60                      3.93       0.00       0.00       0.47       1.35       0.00       1.35        0.41    33.98   0.344
  sub61                      3.93       0.00       0.00       0.67       1.50       0.00       1.50        0.46    43.58   0.382
  sub62                      3.93       0.00       0.00       0.31       1.59       0.00       1.59        0.49    44.33   0.405
  sub63                      3.93       0.00       0.00       1.14       1.36       0.00       1.36        0.41    40.95   0.345
  sub64                      3.93       0.00       0.00       0.59       1.29       0.00       1.29        0.39    32.20   0.328
  sub65                      3.93       0.00       0.00       0.51       1.30       0.00       1.30        0.40    32.60   0.331
  sub66                      3.93       0.00       0.00       1.14       1.14       0.00       1.14        0.35    29.79   0.289
  sub67                      3.93       0.00       0.00       0.31       1.81       0.00       1.81        0.56    57.80   0.460
  sub68                      3.93       0.00       0.00       0.55       1.61       0.00       1.61        0.50    48.39   0.410
  sub69                      3.93       0.00       0.00       0.59       1.80       0.00       1.80        0.42    48.97   0.458
  sub70                      3.93       1.84       0.00       1.96       2.04       0.00       2.04        0.47    35.35   0.353
  sub71                      3.93       0.00       0.00       0.31       1.50       0.00       1.50        0.35    30.71   0.382
  sub72                      3.93       0.00       0.00       0.28       0.98       0.00       0.98        0.20    13.74   0.250
  sub73                      3.93       1.98       0.00       2.01       1.96       0.00       1.96        0.46    30.14   0.331
  sub74                      3.93       0.00       0.00       2.95       0.55       0.00       0.55        0.22    27.52   0.140
  
  
  ******************
  Node Depth Summary
  ******************
  
  ---------------------------------------------------------------------------------
                                 Average  Maximum  Maximum  Time of Max    Reported
                                   Depth    Depth      HGL   Occurrence   Max Depth
  Node                 Type       Meters   Meters   Meters  days hr:min      Meters
  ---------------------------------------------------------------------------------
  WS02001211           JUNCTION     0.45     0.60     5.44     0  00:11        0.60
  WS02001212           JUNCTION     0.21     0.33     5.39     0  00:11        0.33
  WS02001213           JUNCTION     0.43     0.53     5.29     0  04:22        0.53
  WS02003069           JUNCTION     0.27     0.38     4.96     0  05:14        0.38
  WS02003072           JUNCTION     0.34     0.45     4.82     0  05:15        0.45
  WS02003073           JUNCTION     0.19     0.27     4.33     0  05:16        0.27
  WS02003060           JUNCTION     0.25     0.34     5.27     0  05:14        0.34
  WS02003066           JUNCTION     0.17     0.24     5.80     0  05:07        0.24
  WS02003059           JUNCTION     0.50     0.60     5.28     0  05:14        0.60
  WS02003067           JUNCTION     0.45     0.61     5.93     0  05:07        0.61
  WS02004401           JUNCTION     0.52     0.69     6.69     0  05:00        0.69
  WS02004402           JUNCTION     0.56     0.72     6.68     0  05:00        0.72
  WS02004403           JUNCTION     0.58     0.74     6.67     0  05:01        0.74
  WS02004404           JUNCTION     0.66     0.82     6.67     0  05:01        0.82
  WS02004406           JUNCTION     0.67     0.83     6.66     0  05:01        0.83
  WS02004409           JUNCTION     0.33     0.51     6.28     0  05:05        0.51
  WS02004410           JUNCTION     0.36     0.53     6.25     0  05:06        0.53
  WS02004411           JUNCTION     0.38     0.55     6.23     0  05:06        0.55
  WS02004412           JUNCTION     0.40     0.56     6.20     0  05:06        0.56
  WS02004413           JUNCTION     0.55     0.73     6.20     0  05:06        0.73
  WS02004405           JUNCTION     0.66     0.82     6.67     0  05:01        0.82
  WS02006109           JUNCTION     0.59     0.76     7.38     0  04:54        0.76
  WS02006110           JUNCTION     0.61     0.76     7.35     0  04:54        0.76
  WS02006111           JUNCTION     0.16     0.23     6.93     0  04:55        0.23
  WS02006112           JUNCTION     0.67     0.86     6.74     0  04:59        0.86
  WS02006113           JUNCTION     0.24     0.35     7.24     0  04:55        0.35
  WS02006115           JUNCTION     0.41     0.57     6.71     0  04:59        0.57
  WS02006116           JUNCTION     0.49     0.66     6.70     0  05:00        0.66
  WS02006230           JUNCTION     0.50     0.72     7.46     0  04:54        0.72
  WS02006231           JUNCTION     0.32     0.49     7.61     0  04:54        0.49
  WS02006232           JUNCTION     0.43     0.64     7.68     0  04:53        0.64
  WS02006234           JUNCTION     0.34     0.55     7.71     0  04:53        0.55
  WS02006235           JUNCTION     0.37     0.59     7.75     0  04:53        0.59
  WS02006238           JUNCTION     0.39     0.61     7.76     0  04:53        0.61
  WS02006240           JUNCTION     0.29     0.50     7.79     0  04:54        0.50
  WS02006242           JUNCTION     0.35     0.56     7.83     0  04:54        0.56
  WS02006243           JUNCTION     0.23     0.43     7.85     0  04:55        0.43
  WS02006245           JUNCTION     0.23     0.41     7.89     0  04:55        0.41
  WS02006247           JUNCTION     0.26     0.43     7.93     0  04:56        0.43
  WS02006248           JUNCTION     0.21     0.37     7.96     0  04:56        0.37
  WS02006249           JUNCTION     0.25     0.41     8.01     0  04:56        0.41
  WS02006239           JUNCTION     0.34     0.56     7.77     0  04:53        0.56
  WS02006251           JUNCTION     0.24     0.39     8.06     0  04:57        0.39
  WS02006252           JUNCTION     0.22     0.35     8.59     0  04:40        0.35
  WS02006253           JUNCTION     0.27     0.42     8.06     0  04:57        0.42
  WS02006256           JUNCTION     0.76     1.15     8.08     0  04:53        1.14
  WS02004138           JUNCTION     0.07     0.14     7.39     0  00:00        0.14
  WS02004407           JUNCTION     0.15     0.23     6.54     0  05:01        0.23
  WS02006228           JUNCTION     0.57     0.75     7.40     0  04:54        0.75
  WS02006229           JUNCTION     0.54     0.72     7.42     0  04:54        0.72
  WS02006280           JUNCTION     0.05     0.10     8.38     0  02:25        0.10
  WS02006284           JUNCTION     0.34     0.42     8.82     0  02:25        0.42
  WS02006287           JUNCTION     0.07     0.15     9.11     0  02:25        0.15
  WSF200               JUNCTION     0.14     0.23     5.46     0  05:11        0.23
  HS02004901           JUNCTION     0.10     0.18    10.00     0  02:24        0.18
  HS02004881           JUNCTION     0.00     0.02     9.04     0  02:25        0.02
  HS02004876           JUNCTION     0.03     0.08     9.11     0  02:25        0.08
  HS02004870           JUNCTION     0.01     0.03     9.31     0  02:24        0.03
  HS02004862           JUNCTION     0.01     0.03     9.41     0  02:25        0.03
  HS02004856           JUNCTION     0.07     0.09     9.52     0  02:24        0.09
  HS02004852           JUNCTION     0.00     0.02     9.53     0  02:26        0.02
  HS02004848           JUNCTION     0.00     0.02     9.62     0  02:22        0.02
  HS02004842           JUNCTION     0.33     0.35     9.62     0  02:22        0.35
  HS02004837           JUNCTION     0.02     0.04     9.62     0  02:22        0.04
  HS02004830           JUNCTION     0.03     0.05     9.52     0  02:23        0.05
  HS02004824           JUNCTION     0.02     0.03     9.43     0  02:26        0.03
  HS02004817           JUNCTION     0.42     0.48     9.33     0  02:25        0.48
  HS02004807           JUNCTION     0.10     0.16     9.33     0  02:25        0.16
  HS02004802           JUNCTION     0.14     0.19     9.32     0  02:25        0.19
  HS02004799           JUNCTION     0.09     0.19     9.40     0  02:23        0.19
  HS02004792           JUNCTION     0.02     0.06     9.59     0  02:22        0.06
  HS02004788           JUNCTION     0.01     0.05     9.95     0  02:24        0.05
  HS02004785           JUNCTION     0.03     0.09     9.99     0  02:24        0.09
  HS02004777           JUNCTION     0.12     0.20    10.00     0  02:23        0.20
  HS02004770           JUNCTION     0.09     0.17    10.00     0  02:23        0.17
  HS02004480           JUNCTION     0.05     0.14     9.38     0  02:24        0.14
  HS02004479           JUNCTION     0.09     0.18     9.38     0  02:24        0.18
  HS02004478           JUNCTION     0.04     0.09     9.32     0  02:25        0.09
  YS02001745           JUNCTION     0.06     0.08     7.60     0  03:01        0.08
  YS02001748           JUNCTION     0.13     0.23     7.31     0  07:04        0.23
  YS02001751           JUNCTION     0.30     0.43     7.30     0  07:06        0.42
  YS02001754           JUNCTION     0.55     0.70     7.31     0  07:05        0.70
  YS02001762           JUNCTION     0.74     0.89     7.29     0  07:06        0.89
  YS02001765           JUNCTION     0.69     0.84     7.29     0  07:03        0.84
  YS02001767           JUNCTION     0.66     0.81     7.29     0  07:04        0.80
  YS02001770           JUNCTION     0.65     0.79     7.29     0  07:06        0.79
  YS02001774           JUNCTION     0.72     0.87     7.29     0  07:03        0.87
  YS02001779           JUNCTION     0.47     0.61     7.29     0  07:05        0.60
  YS02001882           JUNCTION     0.22     0.31     7.03     0  03:00        0.31
  YS02001884           JUNCTION     0.31     0.41     7.03     0  03:01        0.41
  YS02001759           JUNCTION     0.77     0.93     7.29     0  07:02        0.93
  YS02001887           JUNCTION     0.39     0.49     7.03     0  03:01        0.49
  YS02001890           JUNCTION     0.42     0.52     7.03     0  03:00        0.52
  YS02001898           JUNCTION     0.19     0.28     7.01     0  03:02        0.28
  YS02001901           JUNCTION     0.30     0.40     7.01     0  03:01        0.40
  YS02001904           JUNCTION     0.28     0.38     7.01     0  03:01        0.38
  YS02001907           JUNCTION     0.61     0.72     7.01     0  03:01        0.72
  YS02001910           JUNCTION     0.40     0.50     7.01     0  03:00        0.50
  YS02001915           JUNCTION     0.20     0.29     7.01     0  03:01        0.29
  YS02001918           JUNCTION     0.06     0.07     7.13     0  03:04        0.07
  YS02001619           JUNCTION     0.27     0.37     7.29     0  07:07        0.36
  YS02001629           JUNCTION     0.60     0.74     7.29     0  07:07        0.74
  YS02001641           JUNCTION     0.71     0.85     7.29     0  07:05        0.85
  YS02001644           JUNCTION     0.71     0.86     7.29     0  07:05        0.86
  YS02001652           JUNCTION     0.56     0.71     7.30     0  07:05        0.71
  YS02001655           JUNCTION     0.33     0.45     7.30     0  07:04        0.45
  YS02001920           JUNCTION     0.14     0.16     7.17     0  03:04        0.16
  YS02001923           JUNCTION     0.04     0.06     7.32     0  03:02        0.06
  YS02001926           JUNCTION     0.11     0.13     7.57     0  03:02        0.13
  YS02001929           JUNCTION     0.05     0.06     7.75     0  03:01        0.06
  YS02001658           JUNCTION     0.09     0.16     7.30     0  07:06        0.16
  YS02001661           JUNCTION     0.12     0.16     7.56     0  02:53        0.16
  YS02001664           JUNCTION     0.05     0.08     8.00     0  02:53        0.08
  YS02001622           JUNCTION     0.28     0.39     7.29     0  07:04        0.39
  YS02001633           JUNCTION     0.69     0.84     7.29     0  07:04        0.84
  YS02001649           JUNCTION     0.75     0.90     7.29     0  07:05        0.90
  YS02001757           JUNCTION     0.87     1.03     7.29     0  07:05        1.03
  YS02001895           JUNCTION     0.18     0.27     7.02     0  03:01        0.27
  YS02001625           JUNCTION     0.56     0.69     7.29     0  07:08        0.69
  YS02163301           JUNCTION     0.63     0.77     7.29     0  07:05        0.77
  YS02163601           JUNCTION     0.75     0.89     7.29     0  07:06        0.89
  YS02164001           JUNCTION     0.69     0.83     7.29     0  07:06        0.83
  YS02001647           JUNCTION     0.54     0.68     7.29     0  07:05        0.68
  YSB1154              JUNCTION     0.23     0.32     9.38     0  02:24        0.32
  YSB6556              JUNCTION     0.12     0.21     9.38     0  02:23        0.21
  YSB1174              JUNCTION     0.18     0.27     9.38     0  02:24        0.27
  YSB1171              JUNCTION     0.38     0.48     9.38     0  02:24        0.48
  YS02006553           JUNCTION     0.62     0.73     7.01     0  03:01        0.73
  YS02006561           JUNCTION     0.10     0.15     6.81     0  03:01        0.15
  YS02006556           JUNCTION     0.59     0.70     7.01     0  03:01        0.70
  YS02006558           JUNCTION     0.64     0.74     7.01     0  03:01        0.74
  YS02001783           JUNCTION     0.18     0.52     6.66     0  03:11        0.52
  YS02001784           JUNCTION     0.22     0.59     6.66     0  03:11        0.58
  YS02001786           JUNCTION     0.19     0.62     6.65     0  03:11        0.62
  YS02001788           JUNCTION     0.15     0.66     6.64     0  03:11        0.66
  YS02001790           JUNCTION     0.21     1.40     7.04     0  03:06        0.98
  YS02001791           JUNCTION     0.20     1.37     6.84     0  03:04        1.14
  YS02001793           JUNCTION     0.27     1.77     6.60     0  03:11        1.77
  WS02004139           JUNCTION     0.38     0.54     5.45     0  00:10        0.53
  WSC                  OUTFALL      0.19     0.27     0.94     0  05:16        0.27
  3                    OUTFALL      0.04     0.15     6.15     0  04:53        0.14
  4                    OUTFALL      0.00     0.00     7.00     0  00:00        0.00
  5                    OUTFALL      0.00     0.00     5.00     0  00:00        0.00
  JK-storage           STORAGE      2.51     5.80     6.60     0  03:09        5.80
  CC-storage           STORAGE      0.17     0.28     7.28     0  07:03        0.28
  XR-storage           STORAGE      7.68     7.72     5.72     0  00:41        7.72
  
  
  *******************
  Node Inflow Summary
  *******************
  
  -------------------------------------------------------------------------------------------------
                                  Maximum  Maximum                  Lateral       Total        Flow
                                  Lateral    Total  Time of Max      Inflow      Inflow     Balance
                                   Inflow   Inflow   Occurrence      Volume      Volume       Error
  Node                 Type           LPS      LPS  days hr:min    10^6 ltr    10^6 ltr     Percent
  -------------------------------------------------------------------------------------------------
  WS02001211           JUNCTION      7.35   190.94     0  00:10       0.207        1.81       1.255
  WS02001212           JUNCTION      0.00   185.04     0  00:11           0        1.79       0.633
  WS02001213           JUNCTION      0.00   183.33     0  00:11           0        1.78       0.848
  WS02003069           JUNCTION      0.32   443.86     0  05:14     0.00902        5.63       0.295
  WS02003072           JUNCTION      0.00   443.82     0  05:15           0        5.62       0.406
  WS02003073           JUNCTION      1.82   445.59     0  05:15      0.0514        5.64       0.422
  WS02003060           JUNCTION     16.53   443.57     0  05:13       0.466        5.65       0.286
  WS02003066           JUNCTION      0.00   326.36     0  05:07           0        3.44       0.090
  WS02003059           JUNCTION      0.00   178.07     0  04:22           0        1.77       1.536
  WS02003067           JUNCTION      0.00   326.36     0  05:07           0        3.45       0.199
  WS02004401           JUNCTION      0.00   329.69     0  04:56           0        3.61       0.421
  WS02004402           JUNCTION      0.00   328.65     0  04:56           0         3.6       0.414
  WS02004403           JUNCTION      0.00   327.90     0  04:56           0        3.58       0.390
  WS02004404           JUNCTION      0.16   327.50     0  04:57     0.00457        3.58       0.306
  WS02004406           JUNCTION      0.00   327.29     0  05:00           0        3.55       0.756
  WS02004409           JUNCTION      0.00   327.26     0  05:01           0        3.52       0.267
  WS02004410           JUNCTION      0.00   326.88     0  05:02           0        3.51       0.330
  WS02004411           JUNCTION      0.00   326.51     0  05:03           0         3.5       0.358
  WS02004412           JUNCTION      0.00   326.43     0  05:05           0        3.48       0.413
  WS02004413           JUNCTION      0.00   326.37     0  05:05           0        3.47       0.660
  WS02004405           JUNCTION      0.04   327.33     0  05:00     0.00107        3.57       0.470
  WS02006109           JUNCTION      1.23   334.09     0  04:54      0.0347        3.67       0.260
  WS02006110           JUNCTION      0.00   334.07     0  04:54           0        3.66       0.359
  WS02006111           JUNCTION      0.00   338.86     0  04:55           0        3.65       0.053
  WS02006112           JUNCTION      4.68   334.02     0  04:55      0.0149        3.66       0.541
  WS02006113           JUNCTION      0.00   333.92     0  04:55           0        3.65       0.114
  WS02006115           JUNCTION      0.00   332.56     0  04:55           0        3.64       0.350
  WS02006116           JUNCTION      0.00   330.93     0  04:56           0        3.63       0.350
  WS02006230           JUNCTION     10.28   319.16     0  04:54        0.29        3.06       0.165
  WS02006231           JUNCTION      0.00   309.27     0  04:53           0        2.77       0.094
  WS02006232           JUNCTION      0.00   309.50     0  04:53           0        2.78       0.334
  WS02006234           JUNCTION      0.00   309.96     0  04:53           0        2.78      -0.023
  WS02006235           JUNCTION      0.00   310.29     0  04:53           0        2.83       0.205
  WS02006238           JUNCTION      0.00   235.51     0  05:10           0         1.8       0.004
  WS02006240           JUNCTION      0.00   217.82     0  05:11           0        1.76       0.087
  WS02006242           JUNCTION      0.00   210.94     0  05:11           0        1.74       0.167
  WS02006243           JUNCTION      0.00   203.18     0  05:11           0        1.73       0.182
  WS02006245           JUNCTION      0.00   201.63     0  04:56           0        1.74       0.397
  WS02006247           JUNCTION      0.00   201.60     0  04:20           0        1.74       0.056
  WS02006248           JUNCTION      0.00   201.71     0  04:20           0        1.74      -0.276
  WS02006249           JUNCTION      0.00   201.85     0  04:16           0        1.74       0.464
  WS02006239           JUNCTION      0.00   225.76     0  05:10           0        1.77      -0.278
  WS02006251           JUNCTION      0.08   203.71     0  03:00     0.00217        1.76      -0.050
  WS02006252           JUNCTION      0.00   200.00     0  04:50           0        1.66       0.013
  WS02006253           JUNCTION      0.73    19.50     0  02:25     0.00194       0.102       0.195
  WS02006256           JUNCTION      0.00   409.75     0  04:53           0        1.84       0.088
  WS02004138           JUNCTION      0.00   190.00     0  00:00           0        1.62       0.132
  WS02004407           JUNCTION      0.00   327.27     0  05:01           0        3.52       0.119
  WS02006228           JUNCTION      0.00   332.89     0  04:54           0        3.65       0.251
  WS02006229           JUNCTION      0.00   332.95     0  04:54           0        3.66       0.194
  WS02006280           JUNCTION      0.00   107.91     0  02:25           0       0.599       0.013
  WS02006284           JUNCTION      0.10   107.91     0  02:25      0.0027         0.6       0.189
  WS02006287           JUNCTION      0.00   107.82     0  02:25           0       0.598       0.116
  WSF200               JUNCTION      0.00   326.36     0  05:07           0        3.44       0.071
  HS02004901           JUNCTION      5.81     5.81     0  02:14       0.018      0.0181      10.737
  HS02004881           JUNCTION      2.33    18.98     0  02:25     0.00783      0.0809       0.138
  HS02004876           JUNCTION      3.65    16.96     0  02:23      0.0149      0.0736       0.706
  HS02004870           JUNCTION      4.09    13.40     0  02:23      0.0148      0.0588       0.180
  HS02004862           JUNCTION      3.40     9.62     0  02:24      0.0203      0.0441       0.377
  HS02004856           JUNCTION      3.03     6.26     0  02:23      0.0111      0.0253       6.039
  HS02004852           JUNCTION      0.00     3.45     0  02:24           0      0.0142       0.331
  HS02004848           JUNCTION      6.50     6.50     0  02:25      0.0348      0.0348       0.122
  HS02004842           JUNCTION      0.00     4.48     0  00:03           0      0.0336      63.057
  HS02004837           JUNCTION     12.86    15.79     0  02:21       0.205       0.225       0.361
  HS02004830           JUNCTION      0.15    15.93     0  02:22     0.00423       0.216       0.574
  HS02004824           JUNCTION      7.25    23.09     0  02:26      0.0457        0.26       0.208
  HS02004817           JUNCTION      0.60    23.69     0  02:26      0.0169       0.277       6.407
  HS02004807           JUNCTION      7.71    30.67     0  02:25      0.0272       0.287       1.493
  HS02004802           JUNCTION      0.00    30.70     0  02:26           0       0.283       1.457
  HS02004799           JUNCTION      5.91    65.73     0  02:22       0.022       0.288       0.783
  HS02004792           JUNCTION     26.68    60.05     0  02:22      0.0997       0.266       0.158
  HS02004788           JUNCTION      9.67    35.10     0  02:23      0.0776       0.168       0.235
  HS02004785           JUNCTION      0.15    25.88     0  02:23     0.00423      0.0922       0.519
  HS02004777           JUNCTION      0.03    26.27     0  02:20    0.000846      0.0923       5.929
  HS02004770           JUNCTION     22.54    27.34     0  02:18      0.0767      0.0931       3.447
  HS02004480           JUNCTION      0.00    77.33     0  02:23           0       0.331       0.203
  HS02004479           JUNCTION      0.00    11.87     0  02:25           0      0.0559       1.320
  HS02004478           JUNCTION      0.00   107.82     0  02:24           0       0.599       0.112
  YS02001745           JUNCTION     33.98    33.98     0  03:01        0.41        0.41       0.112
  YS02001748           JUNCTION      0.04    42.75     0  06:59     0.00127        0.44       0.521
  YS02001751           JUNCTION      0.01   106.75     0  04:37     0.00031       0.542       1.497
  YS02001754           JUNCTION      0.26   219.12     0  04:07     0.00733       0.758       2.243
  YS02001762           JUNCTION      0.00    59.13     0  04:48           0        0.48       4.127
  YS02001765           JUNCTION      0.00    81.53     0  04:42           0       0.474       4.659
  YS02001767           JUNCTION      0.54    70.55     0  04:47      0.0151       0.486       6.550
  YS02001770           JUNCTION     44.48    54.09     0  02:37       0.494       0.537       4.954
  YS02001774           JUNCTION      0.00    27.75     0  02:34           0       0.119      22.154
  YS02001779           JUNCTION      0.01    17.40     0  05:59    0.000141      0.0547      21.628
  YS02001882           JUNCTION      0.00     2.12     0  02:10           0     0.00319      77.016
  YS02001884           JUNCTION      0.00     6.64     0  02:10           0       0.013      48.454
  YS02001759           JUNCTION     43.62   108.63     0  04:17       0.464       0.907       2.409
  YS02001887           JUNCTION     58.25    58.25     0  02:50       0.571       0.577       1.138
  YS02001890           JUNCTION      0.00    58.03     0  02:52           0       0.559       1.295
  YS02001898           JUNCTION      0.00    57.81     0  02:55           0       0.549       0.316
  YS02001901           JUNCTION      0.00    57.89     0  02:56           0       0.549       0.892
  YS02001904           JUNCTION      0.00    57.59     0  02:57           0       0.548       0.833
  YS02001907           JUNCTION      0.00   104.76     0  03:02           0        1.17       1.828
  YS02001910           JUNCTION      0.00    47.45     0  03:00           0        0.63       1.502
  YS02001915           JUNCTION     30.73    47.21     0  03:01       0.355       0.634       0.599
  YS02001918           JUNCTION      0.00    16.64     0  03:04           0        0.28       0.279
  YS02001619           JUNCTION     29.79    29.79     0  03:01       0.349       0.349       1.077
  YS02001629           JUNCTION      0.00    36.09     0  02:42           0       0.312       4.539
  YS02001641           JUNCTION      0.00    64.23     0  03:09           0       0.642       2.941
  YS02001644           JUNCTION     32.24    93.68     0  03:08       0.393        1.01       2.285
  YS02001652           JUNCTION      0.00    83.42     0  04:43           0       0.475       3.542
  YS02001655           JUNCTION      0.15    59.53     0  04:49     0.00434       0.448       2.379
  YS02001920           JUNCTION      2.87    16.65     0  03:02      0.0809       0.281       0.587
  YS02001923           JUNCTION      0.04    13.78     0  03:02     0.00106       0.201       0.104
  YS02001926           JUNCTION      0.05    13.79     0  03:01     0.00147       0.201       0.759
  YS02001929           JUNCTION     13.74    13.74     0  03:01         0.2         0.2       0.099
  YS02001658           JUNCTION      0.00    40.95     0  02:53           0       0.436       0.337
  YS02001661           JUNCTION      0.00    40.95     0  02:53           0        0.41       0.169
  YS02001664           JUNCTION     40.95    40.95     0  02:53        0.41        0.41       0.035
  YS02001622           JUNCTION      0.00    30.77     0  02:51           0       0.346       3.349
  YS02001633           JUNCTION     32.80    68.71     0  02:43       0.406       0.689       4.123
  YS02001649           JUNCTION      0.00   155.65     0  04:48           0        1.41       2.413
  YS02001757           JUNCTION      0.00   364.07     0  04:15           0        2.76       3.322
  YS02001895           JUNCTION      0.00    57.82     0  02:55           0       0.552       0.553
  YS02001625           JUNCTION      0.00    33.36     0  02:41           0       0.336       8.178
  YS02163301           JUNCTION      0.00    40.50     0  02:43           0       0.305       6.728
  YS02163601           JUNCTION      0.11    69.64     0  02:42      0.0031       0.659       4.281
  YS02164001           JUNCTION      0.00    66.54     0  02:42           0       0.642       2.731
  YS02001647           JUNCTION      0.00    94.68     0  03:10           0       0.976       2.124
  YSB1154              JUNCTION      6.50     6.50     0  02:19      0.0266      0.0281       5.426
  YSB6556              JUNCTION      0.00     6.40     0  02:23           0      0.0291       4.453
  YSB1174              JUNCTION      6.64     6.64     0  02:14      0.0195      0.0205       6.671
  YSB1171              JUNCTION      0.00    11.90     0  02:22           0      0.0553      12.904
  YS02006553           JUNCTION      0.00   104.94     0  03:03           0        1.16       1.193
  YS02006561           JUNCTION      0.00   153.50     0  03:01           0        1.63       0.031
  YS02006556           JUNCTION      0.00   105.08     0  03:03           0        1.16       0.853
  YS02006558           JUNCTION     49.27   153.52     0  03:01        0.52        1.66       0.257
  YS02001783           JUNCTION      0.00   153.49     0  03:01           0        1.63       0.070
  YS02001784           JUNCTION      1.06   160.10     0  03:12      0.0299        1.66       0.120
  YS02001786           JUNCTION      0.06   174.35     0  03:12     0.00159        1.66       0.118
  YS02001788           JUNCTION      0.07   200.53     0  03:20       0.002        1.66       0.065
  YS02001790           JUNCTION      0.15   237.64     0  03:20     0.00437        1.66       0.057
  YS02001791           JUNCTION      0.00   247.67     0  03:20           0        1.66       0.026
  YS02001793           JUNCTION      0.00   248.26     0  03:20           0        1.66       0.021
  WS02004139           JUNCTION      0.32   193.01     0  00:00     0.00905        1.63       1.567
  WSC                  OUTFALL       0.00   445.51     0  05:16           0        5.62       0.000
  3                    OUTFALL       0.00   296.15     0  04:53           0       0.773       0.000
  4                    OUTFALL       0.00     0.00     0  00:00           0           0       0.000 ltr
  5                    OUTFALL       0.00     0.00     0  00:00           0           0       0.000 ltr
  JK-storage           STORAGE       0.00   292.21     0  02:56           0        1.81      -4.484
  CC-storage           STORAGE       0.00   243.08     0  03:05           0        2.42       0.632
  XR-storage           STORAGE     255.73   255.73     0  03:00        6.32        6.92      -0.008
  
  
  **********************
  Node Surcharge Summary
  **********************
  
  Surcharging occurs when water rises above the top of the highest conduit.
  ---------------------------------------------------------------------
                                               Max. Height   Min. Depth
                                   Hours       Above Crown    Below Rim
  Node                 Type      Surcharged         Meters       Meters
  ---------------------------------------------------------------------
  YS02001757           JUNCTION        1.47          0.031        1.179
  YS02001790           JUNCTION        0.29          0.597        0.560
  YS02001791           JUNCTION        0.52          0.567        1.353
  YS02001793           JUNCTION        0.75          0.773        1.827
  
  
  *********************
  Node Flooding Summary
  *********************
  
  Flooding refers to all water that overflows a node, whether it ponds or not.
  --------------------------------------------------------------------------
                                                             Total   Maximum
                                 Maximum   Time of Max       Flood    Ponded
                        Hours       Rate    Occurrence      Volume     Depth
  Node                 Flooded       LPS   days hr:min    10^6 ltr    Meters
  --------------------------------------------------------------------------
  JK-storage              0.08    126.10      0  03:12       0.023     0.000
  XR-storage              7.14    255.30      0  02:50       4.369     0.000
  
  
  **********************
  Storage Volume Summary
  **********************
  
  --------------------------------------------------------------------------------------------------
                         Average     Avg  Evap Exfil       Maximum     Max    Time of Max    Maximum
                          Volume    Pcnt  Pcnt  Pcnt        Volume    Pcnt     Occurrence    Outflow
  Storage Unit           1000 m3    Full  Loss  Loss       1000 m3    Full    days hr:min        LPS
  --------------------------------------------------------------------------------------------------
  JK-storage               0.126      43     0     0         0.291     100       0  03:09     409.75
  CC-storage               0.465       3     0     0         0.785       5       0  07:03     200.00
  XR-storage               0.921      99     0     0         0.926     100       0  00:41     190.00
  
  
  ***********************
  Outfall Loading Summary
  ***********************
  
  -----------------------------------------------------------
                         Flow       Avg       Max       Total
                         Freq      Flow      Flow      Volume
  Outfall Node           Pcnt       LPS       LPS    10^6 ltr
  -----------------------------------------------------------
  WSC                  100.00    243.22    445.51       5.621
  3                     41.40    119.09    296.15       0.773
  4                      0.00      0.00      0.00       0.000
  5                      0.00      0.00      0.00       0.000
  -----------------------------------------------------------
  System                35.35    362.31    540.06       6.393
  
  
  ********************
  Link Flow Summary
  ********************
  
  -----------------------------------------------------------------------------
                                 Maximum  Time of Max   Maximum    Max/    Max/
                                  |Flow|   Occurrence   |Veloc|    Full    Full
  Link                 Type          LPS  days hr:min     m/sec    Flow   Depth
  -----------------------------------------------------------------------------
  WS02003066WSF200     CONDUIT    326.36     0  05:07      2.48    0.06    0.17
  WS02006287WS02006284 CONDUIT    107.81     0  02:25      1.29    0.05    0.16
  WS02006284WS02006280 CONDUIT    107.91     0  02:25      1.54    0.05    0.14
  WS02006280WS02006229 CONDUIT    107.91     0  02:25      2.47    0.02    0.10
  WS02006229WS02006228 CONDUIT    332.89     0  04:54      0.70    1.10    0.90
  WS02006256WS02006235 CONDUIT    149.45     0  02:05      2.13    1.58    1.00
  WS02006253WS02006251 CONDUIT     22.46     0  02:42      0.38    0.07    0.57
  WS02006252WS02006251 CONDUIT    200.34     0  04:40      1.97    0.74    0.76
  WS02006251WS02006249 CONDUIT    201.85     0  04:16      0.92    0.58    0.57
  WS02006249WS02006248 CONDUIT    201.71     0  04:20      1.01    1.10    0.54
  WS02006248WS02006247 CONDUIT    201.60     0  04:20      0.98    0.44    0.56
  WS02006247WS02006245 CONDUIT    201.63     0  04:56      0.95    1.60    0.59
  WS02006245WS02006243 CONDUIT    203.18     0  05:11      1.05    0.60    0.59
  WS02006243WS02006242 CONDUIT    210.94     0  05:11      0.93    0.45    0.68
  WS02006242WS02006240 CONDUIT    217.82     0  05:11      0.81    0.87    0.75
  WS02006240WS02006239 CONDUIT    225.76     0  05:10      0.98    0.71    0.73
  WS02006239WS02006238 CONDUIT    235.51     0  05:10      0.78    0.75    0.83
  WS02006238WS02006235 CONDUIT    240.66     0  05:10      0.76    0.54    0.86
  WS02006235WS02006234 CONDUIT    309.96     0  04:53      1.10    3.27    0.79
  WS02006234WS02006232 CONDUIT    309.50     0  04:53      0.91    0.63    0.85
  WS02006232WS02006231 CONDUIT    309.27     0  04:53      0.94    0.65    0.80
  WS02006231WS02006230 CONDUIT    308.88     0  04:54      1.29    4.69    0.60
  WS02006230WS02006229 CONDUIT    319.13     0  04:54      0.83    7.10    0.98
  WS02006228WS02006109 CONDUIT    332.86     0  04:54      0.68    1.45    0.93
  WS02006116WS02004401 CONDUIT    329.69     0  04:56      0.59    0.45    0.67
  WS02006115WS02006116 CONDUIT    330.93     0  04:56      0.76    0.42    0.59
  WS02006113WS02006111 CONDUIT    338.86     0  04:55      2.09    0.41    0.36
  WS02006112WS02006115 CONDUIT    332.56     0  04:55      0.56    0.20    0.71
  WS02006111WS02006112 CONDUIT    333.96     0  04:55      0.99    0.16    0.63
  WS02006110WS02006113 CONDUIT    333.92     0  04:55      0.90    0.30    0.69
  WS02006109WS02006110 CONDUIT    334.07     0  04:54      0.71    0.64    0.88
  WS02004411WS02004412 CONDUIT    326.43     0  05:05      0.95    0.46    0.55
  WS02004401WS02004402 CONDUIT    328.65     0  04:56      0.56    0.39    0.70
  WS02004413WS02003067 CONDUIT    326.36     0  05:07      0.85    0.14    0.49
  WS02004412WS02004413 CONDUIT    326.37     0  05:05      0.88    0.22    0.65
  WS02004410WS02004411 CONDUIT    326.51     0  05:03      0.84    0.45    0.54
  WS02004409WS02004410 CONDUIT    326.88     0  05:02      0.84    0.42    0.52
  WS02004407WS02004409 CONDUIT    327.26     0  05:01      1.26    0.12    0.37
  WS02004406WS02004407 CONDUIT    327.27     0  05:01      0.78    0.15    0.53
  WS02004405WS02004406 CONDUIT    327.29     0  05:00      0.47    0.65    0.82
  WS02004404WS02004405 CONDUIT    327.29     0  05:00      0.48    3.21    0.82
  WS02004403WS02004404 CONDUIT    327.33     0  04:57      0.50    0.24    0.78
  WS02004402WS02004403 CONDUIT    327.90     0  04:56      0.53    0.47    0.73
  WS02004139WS02001211 CONDUIT    183.59     0  00:10      0.69    0.23    0.43
  WS02004138WS02004139 CONDUIT    192.69     0  00:00      2.95    0.04    0.31
  WS02003067WS02003066 CONDUIT    326.36     0  05:07      0.91    0.10    0.35
  WS02001213WS02003059 CONDUIT    178.07     0  04:22      0.65    0.29    0.55
  WS02001212WS02001213 CONDUIT    183.33     0  00:11      1.00    0.28    0.28
  WS02001211WS02001212 CONDUIT    185.04     0  00:11      0.52    0.14    0.46
  WS02003072WS02003073 CONDUIT    443.77     0  05:15      1.33    0.96    0.34
  WS02003069WS02003072 CONDUIT    443.82     0  05:15      1.28    0.21    0.35
  WS02003060WS02003069 CONDUIT    443.54     0  05:14      1.55    0.17    0.30
  WS02003059WS02003060 CONDUIT    174.70     0  04:23      0.62    0.11    0.47
  HS02004901HS02004770 CONDUIT      5.10     0  02:23      0.03    0.02    0.25
  HS02004876HS02004881 CONDUIT     16.92     0  02:25      0.35    0.18    0.07
  HS02004870HS02004876 CONDUIT     13.39     0  02:24      0.25    0.01    0.08
  HS02004842HS02004848 CONDUIT      3.22     0  02:34      0.02    0.00    0.26
  HS02004837HS02004842 CONDUIT      4.48     0  00:03      0.42    0.00    0.27
  HS02004830HS02004837 CONDUIT     15.78     0  02:22      0.37    0.02    0.06
  HS02004824HS02004830 CONDUIT     15.93     0  02:23      0.41    0.02    0.05
  HS02004817HS02004824 CONDUIT     23.09     0  02:26      0.17    0.01    0.36
  HS02004770HS02004777 CONDUIT     26.24     0  02:20      0.14    0.05    0.27
  HS02004799HS02004480 CONDUIT     65.60     0  02:23      0.42    0.08    0.23
  HS02004792HS02004799 CONDUIT     60.01     0  02:22      0.48    0.04    0.18
  HS02004788HS02004792 CONDUIT     35.07     0  02:24      0.65    0.02    0.08
  HS02004785HS02004788 CONDUIT     25.78     0  02:24      0.37    0.19    0.10
  HS02004777HS02004785 CONDUIT     25.73     0  02:23      0.18    0.03    0.21
  HS02004480HS02004478 CONDUIT     77.32     0  02:24      0.72    0.33    0.15
  HS02004479HS02004480 CONDUIT     11.98     0  02:26      0.16    0.01    0.23
  HS02004862HS02004870 CONDUIT      9.59     0  02:25      0.35    0.01    0.04
  HS02004848HS02004852 CONDUIT      3.45     0  02:24      0.22    0.00    0.02
  HS02004856HS02004862 CONDUIT      6.24     0  02:24      0.25    0.01    0.04
  HS02004852HS02004856 CONDUIT      3.42     0  02:26      0.06    0.00    0.08
  HS02004802HS02004478 CONDUIT     30.81     0  02:28      0.22    0.03    0.20
  HS02004478WS02006287 CONDUIT    107.82     0  02:25      0.98    0.03    0.12
  HS02004817HS02004807 CONDUIT     23.86     0  02:29      0.08    0.01    0.45
  HS02004807HS02004802 CONDUIT     30.70     0  02:26      0.19    0.06    0.24
  YS02001759YS02001757 CONDUIT     96.86     0  03:03      0.14    0.07    0.96
  YS02001762YS02001759 CONDUIT     83.87     0  04:17      0.17    0.10    0.91
  YS02001765YS02001762 CONDUIT     59.13     0  04:48      0.22    0.06    0.87
  YS02001770YS02001767 CONDUIT     56.56     0  02:37      0.31    0.22    0.80
  YS02001774YS02001770 CONDUIT     27.75     0  02:34      0.14    0.02    0.82
  YS02001779YS02001774 CONDUIT     17.39     0  05:59      0.06    0.01    0.74
  YS02001649YS02001757 CONDUIT    149.11     0  04:48      0.20    0.09    0.95
  YS02001767YS02001765 CONDUIT     81.53     0  04:42      0.26    0.10    0.82
  YS02006561YS02001783 CONDUIT    153.49     0  03:01      1.48    0.08    0.42
  YS02001783YS02001784 CONDUIT    159.04     0  03:12      0.98    0.22    0.69
  YS02001784YS02001785 CONDUIT    174.29     0  03:12      1.01    0.41    0.75
  YS02001788YS02001790 CONDUIT    237.49     0  03:20      1.55    0.18    0.91
  YS02001790YS02001791 CONDUIT    247.67     0  03:20      1.81    0.27    1.00
  YS02001791YS02001793 CONDUIT    248.26     0  03:20      3.51    0.11    1.00
  YS02001910YS02001907 CONDUIT     47.41     0  03:01      0.50    0.03    0.61
  YS02001786YS02001788 CONDUIT    200.46     0  03:20      1.40    0.39    0.80
  YS02001915YS02001910 CONDUIT     47.45     0  03:00      0.44    0.02    0.40
  YS02001918YS02001915 CONDUIT     16.63     0  03:04      0.44    0.01    0.18
  YS02001923YS02001920 CONDUIT     13.78     0  03:02      0.30    0.01    0.11
  YS02001926YS02001923 CONDUIT     13.74     0  03:02      0.36    0.02    0.09
  YS02001929YS02001926 CONDUIT     13.74     0  03:01      0.37    0.01    0.09
  YS02001920YS02001918 CONDUIT     16.64     0  03:04      0.34    0.02    0.11
  YS02001629YS02163301 CONDUIT     40.50     0  02:43      0.09    0.05    0.76
  YS02001619YS02001622 CONDUIT     30.77     0  02:51      0.54    0.05    0.37
  YS02001622YS02001625 CONDUIT     33.36     0  02:41      0.18    0.02    0.54
  YS02001625YS02001629 CONDUIT     36.09     0  02:42      0.17    0.02    0.52
  YS02163301YS02001633 CONDUIT     37.85     0  02:43      0.09    0.04    0.81
  YS02163601YS02164001 CONDUIT     66.54     0  02:42      0.12    0.06    0.86
  YS02164001YS02001641 CONDUIT     64.23     0  03:09      0.11    0.09    0.84
  YS02001641YS02001644 CONDUIT     62.85     0  03:08      0.12    0.20    0.86
  YS02001647YS02001649 CONDUIT     96.26     0  03:08      0.18    0.05    0.79
  YS02006553YS02006556 CONDUIT    105.08     0  03:03      0.18    0.09    0.69
  YS02006556YS02006558 CONDUIT    105.15     0  03:03      0.17    0.08    0.72
  YSB6556YSB1171       CONDUIT      6.44     0  02:27      0.03    0.01    0.49
  YS02001907YS02006553 CONDUIT    104.94     0  03:03      0.15    0.12    0.79
  YS02006558YS02006561 CONDUIT    153.50     0  03:01      1.90    0.34    0.33
  YS02001633YS02163601 CONDUIT     69.53     0  02:42      0.12    0.07    0.85
  YS02001644YS02001647 CONDUIT     94.68     0  03:10      0.18    0.06    0.77
  YS02001745YS02001748 CONDUIT     33.97     0  03:01      1.15    0.01    0.10
  YS02001748YS02001751 CONDUIT     55.56     0  04:50      0.92    0.03    0.31
  YS02001751YS02001754 CONDUIT    109.50     0  04:33      0.85    0.05    0.54
  YS02001754YS02001757 CONDUIT    158.77     0  04:07      0.33    0.06    0.85
  YS02001882YS02001884 CONDUIT      2.12     0  02:10      0.06    0.00    0.33
  YS02001884YS02001887 CONDUIT      6.64     0  02:10      0.05    0.01    0.42
  YS02001890YS02001895 CONDUIT     57.82     0  02:55      0.20    0.03    0.40
  YS02001895YS02001898 CONDUIT     57.81     0  02:55      0.42    0.10    0.26
  YS02001898YS02001901 CONDUIT     57.89     0  02:56      0.25    0.04    0.34
  YS02001901YS02001904 CONDUIT     57.59     0  02:57      0.20    0.09    0.39
  YS02001904YS02001907 CONDUIT     57.79     0  03:03      0.13    0.02    0.55
  YS02001887YS02001890 CONDUIT     58.03     0  02:52      0.16    0.10    0.48
  YS02001652YS02001649 CONDUIT     79.69     0  04:48      0.28    0.04    0.80
  YS02001655YS02001652 CONDUIT     59.34     0  04:42      0.91    0.03    0.56
  YS02001658YS02001655 CONDUIT     46.68     0  04:47      1.05    0.02    0.29
  YS02001661YS02001658 CONDUIT     40.95     0  02:53      1.17    0.02    0.10
  YS02001664YS02001661 CONDUIT     40.95     0  02:53      0.78    0.01    0.12
  YSB1154YSB6556       CONDUIT      6.40     0  02:23      0.19    0.01    0.38
  YSB1174YSB1171       CONDUIT      6.06     0  02:16      0.03    0.01    0.50
  YSB1171HS02004479    CONDUIT     11.87     0  02:25      0.54    0.01    0.38
  HS02004881HS02006253 CONDUIT     18.97     0  02:25      1.26    0.00    0.06
  YS02001793JiankangQianchi CONDUIT    292.21     0  02:56      8.80    0.02    1.00
  YS02001757CaochengTiaoxuchi CONDUIT    243.08     0  03:05      0.65    0.11    0.64
  WSF200WS02003060     CONDUIT    326.29     0  05:07      1.78    0.07    0.24
  1                    CONDUIT    445.51     0  05:16      2.65    0.16    0.27
  2                    CONDUIT      0.00     0  00:00      0.00    0.00    0.00
  3                    CONDUIT    296.15     0  04:53      8.68    0.47    0.49
  4                    CONDUIT      0.00     0  00:00      0.00    0.00    0.00
  CC-Pump-1            PUMP       199.98     0  06:30              1.00
  CC-Pump-2            PUMP       200.00     0  04:10              1.00
  JK-Pump-1            PUMP       300.00     0  04:40              1.00
  JK-Pump-2            PUMP       300.00     0  07:00              1.00
  XR-Pump-1            PUMP        95.00     0  01:00              1.00
  XR-Pump-2            PUMP        95.00     0  00:00              1.00
  XR-Pump-3            PUMP        95.00     0  00:00              1.00
  XR-Pump-4            PUMP        94.98     0  04:20              1.00
  
  
  ***************************
  Flow Classification Summary
  ***************************
  
  -------------------------------------------------------------------------------------
                      Adjusted    ---------- Fraction of Time in Flow Class ---------- 
                       /Actual         Up    Down  Sub   Sup   Up    Down  Norm  Inlet 
  Conduit               Length    Dry  Dry   Dry   Crit  Crit  Crit  Crit  Ltd   Ctrl  
  -------------------------------------------------------------------------------------
  WS02003066WSF200        1.00   0.11  0.00  0.00  0.00  0.89  0.00  0.00  0.68  0.00
  WS02006287WS02006284    1.00   0.03  0.02  0.00  0.74  0.21  0.00  0.00  0.81  0.00
  WS02006284WS02006280    1.00   0.04  0.00  0.00  0.00  0.00  0.00  0.96  0.00  0.00
  WS02006280WS02006229    1.00   0.04  0.00  0.00  0.00  0.00  0.00  0.96  0.00  0.00
  WS02006229WS02006228    1.00   0.00  0.00  0.00  1.00  0.00  0.00  0.00  0.00  0.00
  WS02006256WS02006235    1.00   0.06  0.00  0.00  0.94  0.00  0.00  0.00  0.02  0.00
  WS02006253WS02006251    1.00   0.01  0.02  0.00  0.96  0.00  0.01  0.00  0.00  0.00
  WS02006252WS02006251    1.00   0.12  0.00  0.00  0.00  0.00  0.88  0.00  0.00  0.00
  WS02006251WS02006249    1.00   0.00  0.00  0.00  1.00  0.00  0.00  0.00  0.49  0.00
  WS02006249WS02006248    1.00   0.00  0.00  0.00  0.70  0.00  0.30  0.00  0.00  0.00
  WS02006248WS02006247    1.00   0.01  0.00  0.00  0.98  0.00  0.00  0.02  0.41  0.00
  WS02006247WS02006245    1.00   0.01  0.00  0.00  0.96  0.00  0.00  0.04  0.00  0.00
  WS02006245WS02006243    1.00   0.01  0.00  0.00  0.91  0.00  0.00  0.08  0.02  0.00
  WS02006243WS02006242    1.00   0.01  0.00  0.00  0.95  0.00  0.00  0.04  0.26  0.00
  WS02006242WS02006240    1.00   0.01  0.03  0.00  0.94  0.00  0.01  0.00  0.00  0.00
  WS02006240WS02006239    1.00   0.05  0.00  0.00  0.89  0.00  0.00  0.06  0.01  0.00
  WS02006239WS02006238    1.00   0.05  0.00  0.00  0.94  0.00  0.00  0.01  0.05  0.00
  WS02006238WS02006235    1.00   0.05  0.01  0.00  0.94  0.00  0.00  0.00  0.00  0.00
  WS02006235WS02006234    1.00   0.07  0.00  0.00  0.89  0.00  0.04  0.00  0.00  0.00
  WS02006234WS02006232    1.00   0.07  0.00  0.00  0.93  0.00  0.00  0.00  0.00  0.00
  WS02006232WS02006231    1.00   0.07  0.00  0.00  0.92  0.00  0.01  0.00  0.00  0.00
  WS02006231WS02006230    1.00   0.07  0.00  0.00  0.00  0.00  0.93  0.00  0.00  0.00
  WS02006230WS02006229    1.00   0.00  0.00  0.00  0.99  0.00  0.00  0.01  0.00  0.00
  WS02006228WS02006109    1.00   0.00  0.00  0.00  1.00  0.00  0.00  0.00  0.01  0.00
  WS02006116WS02004401    1.00   0.03  0.00  0.00  0.97  0.00  0.00  0.00  0.01  0.00
  WS02006115WS02006116    1.00   0.03  0.00  0.00  0.94  0.00  0.00  0.03  0.00  0.00
  WS02006113WS02006111    1.00   0.02  0.00  0.00  0.01  0.98  0.00  0.00  0.18  0.00
  WS02006112WS02006115    1.00   0.02  0.01  0.00  0.97  0.00  0.00  0.00  0.00  0.00
  WS02006111WS02006112    1.00   0.02  0.00  0.00  0.98  0.00  0.00  0.00  0.92  0.00
  WS02006110WS02006113    1.00   0.00  0.01  0.00  0.98  0.00  0.00  0.00  0.00  0.00
  WS02006109WS02006110    1.00   0.00  0.00  0.00  0.99  0.00  0.00  0.00  0.00  0.00
  WS02004411WS02004412    1.00   0.09  0.00  0.00  0.91  0.00  0.00  0.00  0.00  0.00
  WS02004401WS02004402    1.00   0.03  0.00  0.00  0.97  0.00  0.00  0.00  0.04  0.00
  WS02004413WS02003067    1.00   0.10  0.01  0.00  0.00  0.00  0.89  0.00  0.00  0.00
  WS02004412WS02004413    1.00   0.10  0.00  0.00  0.90  0.00  0.00  0.00  0.00  0.00
  WS02004410WS02004411    1.00   0.09  0.00  0.00  0.91  0.00  0.00  0.00  0.00  0.00
  WS02004409WS02004410    1.00   0.09  0.00  0.00  0.91  0.00  0.00  0.00  0.00  0.00
  WS02004407WS02004409    1.00   0.09  0.00  0.00  0.90  0.01  0.00  0.00  0.71  0.00
  WS02004406WS02004407    1.00   0.00  0.09  0.00  0.91  0.00  0.00  0.00  0.00  0.00
  WS02004405WS02004406    1.00   0.00  0.00  0.00  1.00  0.00  0.00  0.00  0.04  0.00
  WS02004404WS02004405    1.00   0.00  0.00  0.00  1.00  0.00  0.00  0.00  0.00  0.00
  WS02004403WS02004404    1.00   0.00  0.03  0.00  0.97  0.00  0.00  0.00  0.04  0.00
  WS02004402WS02004403    1.00   0.03  0.00  0.00  0.97  0.00  0.00  0.00  0.00  0.00
  WS02004139WS02001211    1.00   0.00  0.00  0.00  1.00  0.00  0.00  0.00  0.00  0.00
  WS02004138WS02004139    1.00   0.00  0.00  0.00  0.99  0.00  0.00  0.00  1.00  0.00
  WS02003067WS02003066    1.00   0.11  0.00  0.00  0.89  0.00  0.00  0.00  0.00  0.00
  WS02001213WS02003059    1.00   0.00  0.00  0.00  1.00  0.00  0.00  0.00  0.00  0.00
  WS02001212WS02001213    1.00   0.00  0.00  0.00  0.43  0.00  0.57  0.00  0.00  0.00
  WS02001211WS02001212    1.00   0.00  0.00  0.00  1.00  0.00  0.00  0.00  0.00  0.00
  WS02003072WS02003073    1.00   0.00  0.00  0.00  0.00  0.00  0.00  1.00  0.00  0.00
  WS02003069WS02003072    1.00   0.00  0.00  0.00  1.00  0.00  0.00  0.00  0.90  0.00
  WS02003060WS02003069    1.00   0.00  0.00  0.00  0.98  0.02  0.00  0.00  0.58  0.00
  WS02003059WS02003060    1.00   0.00  0.00  0.00  1.00  0.00  0.00  0.00  0.01  0.00
  HS02004901HS02004770    1.00   0.04  0.00  0.00  0.96  0.00  0.00  0.00  0.03  0.00
  HS02004876HS02004881    1.00   0.01  0.00  0.00  0.99  0.00  0.00  0.00  0.00  0.00
  HS02004870HS02004876    1.00   0.00  0.00  0.00  1.00  0.00  0.00  0.00  0.95  0.00
  HS02004842HS02004848    1.00   0.00  0.04  0.00  0.96  0.00  0.00  0.00  0.71  0.00
  HS02004837HS02004842    1.00   0.00  0.00  0.00  1.00  0.00  0.00  0.00  0.11  0.00
  HS02004830HS02004837    1.00   0.00  0.00  0.00  1.00  0.00  0.00  0.00  0.99  0.00
  HS02004824HS02004830    1.00   0.00  0.00  0.00  1.00  0.00  0.00  0.00  0.00  0.00
  HS02004817HS02004824    1.00   0.00  0.00  0.00  1.00  0.00  0.00  0.00  1.00  0.00
  HS02004770HS02004777    1.00   0.00  0.04  0.00  0.96  0.00  0.00  0.00  0.08  0.00
  HS02004799HS02004480    1.00   0.00  0.01  0.00  0.94  0.00  0.05  0.00  0.00  0.00
  HS02004792HS02004799    1.00   0.00  0.00  0.00  1.00  0.00  0.00  0.00  0.98  0.00
  HS02004788HS02004792    1.00   0.00  0.00  0.00  1.00  0.00  0.00  0.00  0.98  0.00
  HS02004785HS02004788    1.00   0.00  0.00  0.00  1.00  0.00  0.00  0.00  0.00  0.00
  HS02004777HS02004785    1.00   0.00  0.00  0.00  1.00  0.00  0.00  0.00  0.22  0.00
  HS02004480HS02004478    1.00   0.04  0.00  0.00  0.76  0.00  0.00  0.20  0.00  0.00
  HS02004479HS02004480    1.00   0.01  0.00  0.00  0.99  0.00  0.00  0.00  0.16  0.00
  HS02004862HS02004870    1.00   0.00  0.00  0.00  1.00  0.00  0.00  0.00  0.05  0.00
  HS02004848HS02004852    1.00   0.04  0.00  0.00  0.96  0.00  0.00  0.00  0.69  0.00
  HS02004856HS02004862    1.00   0.00  0.08  0.00  0.92  0.00  0.00  0.00  0.73  0.00
  HS02004852HS02004856    1.00   0.04  0.01  0.00  0.95  0.00  0.00  0.00  0.82  0.00
  HS02004802HS02004478    1.00   0.04  0.01  0.00  0.95  0.00  0.00  0.00  0.00  0.00
  HS02004478WS02006287    1.00   0.05  0.00  0.00  0.95  0.00  0.00  0.00  0.81  0.00
  HS02004817HS02004807    1.00   0.00  0.04  0.00  0.96  0.00  0.00  0.00  0.00  0.00
  HS02004807HS02004802    1.00   0.04  0.00  0.00  0.96  0.00  0.00  0.00  0.01  0.00
  YS02001759YS02001757    1.00   0.00  0.00  0.00  1.00  0.00  0.00  0.00  0.17  0.00
  YS02001762YS02001759    1.00   0.00  0.00  0.00  1.00  0.00  0.00  0.00  0.05  0.00
  YS02001765YS02001762    1.00   0.00  0.00  0.00  1.00  0.00  0.00  0.00  0.24  0.00
  YS02001770YS02001767    1.00   0.00  0.00  0.00  1.00  0.00  0.00  0.00  0.00  0.00
  YS02001774YS02001770    1.00   0.00  0.05  0.00  0.95  0.00  0.00  0.00  0.06  0.00
  YS02001779YS02001774    1.00   0.00  0.00  0.00  1.00  0.00  0.00  0.00  0.28  0.00
  YS02001649YS02001757    1.00   0.00  0.00  0.00  1.00  0.00  0.00  0.00  0.20  0.00
  YS02001767YS02001765    1.00   0.00  0.00  0.00  1.00  0.00  0.00  0.00  0.01  0.00
  YS02006561YS02001783    1.00   0.08  0.00  0.00  0.06  0.85  0.00  0.00  0.72  0.00
  YS02001783YS02001784    1.00   0.00  0.08  0.00  0.92  0.00  0.00  0.00  0.14  0.00
  YS02001784YS02001785    1.00   0.00  0.00  0.00  1.00  0.00  0.00  0.00  0.27  0.00
  YS02001788YS02001790    1.00   0.00  0.00  0.00  0.23  0.77  0.00  0.00  0.91  0.00
  YS02001790YS02001791    1.00   0.00  0.00  0.00  0.15  0.85  0.00  0.00  0.22  0.00
  YS02001791YS02001793    1.00   0.00  0.00  0.00  0.18  0.82  0.00  0.00  0.02  0.00
  YS02001910YS02001907    1.00   0.00  0.00  0.00  0.99  0.00  0.00  0.01  0.13  0.00
  YS02001786YS02001788    1.00   0.00  0.00  0.00  0.26  0.74  0.00  0.00  0.00  0.00
  YS02001915YS02001910    1.00   0.00  0.00  0.00  1.00  0.00  0.00  0.00  0.25  0.00
  YS02001918YS02001915    1.00   0.00  0.00  0.00  0.99  0.00  0.00  0.00  0.80  0.00
  YS02001923YS02001920    1.00   0.00  0.00  0.00  1.00  0.00  0.00  0.00  1.00  0.00
  YS02001926YS02001923    1.00   0.00  0.02  0.00  0.00  0.00  0.98  0.00  0.00  0.00
  YS02001929YS02001926    1.00   0.00  0.04  0.00  0.96  0.00  0.00  0.00  0.86  0.00
  YS02001920YS02001918    1.00   0.00  0.00  0.00  1.00  0.00  0.00  0.00  0.00  0.00
  YS02001629YS02163301    1.00   0.06  0.01  0.00  0.93  0.00  0.00  0.00  0.00  0.00
  YS02001619YS02001622    1.00   0.04  0.00  0.00  0.96  0.00  0.00  0.00  0.00  0.00
  YS02001622YS02001625    1.00   0.04  0.00  0.00  0.96  0.00  0.00  0.00  0.14  0.00
  YS02001625YS02001629    1.00   0.04  0.06  0.00  0.88  0.00  0.02  0.00  0.00  0.00
  YS02163301YS02001633    1.00   0.00  0.06  0.00  0.94  0.00  0.00  0.00  0.00  0.00
  YS02163601YS02164001    1.00   0.00  0.02  0.00  0.98  0.00  0.00  0.00  0.00  0.00
  YS02164001YS02001641    1.00   0.00  0.02  0.00  0.98  0.00  0.00  0.00  0.07  0.00
  YS02001641YS02001644    1.00   0.00  0.00  0.00  1.00  0.00  0.00  0.00  0.00  0.00
  YS02001647YS02001649    1.00   0.00  0.08  0.00  0.92  0.00  0.00  0.00  0.01  0.00
  YS02006553YS02006556    1.00   0.00  0.00  0.00  1.00  0.00  0.00  0.00  0.03  0.00
  YS02006556YS02006558    1.00   0.00  0.00  0.00  1.00  0.00  0.00  0.00  0.00  0.00
  YSB6556YSB1171          1.00   0.01  0.02  0.00  0.97  0.00  0.00  0.00  0.00  0.00
  YS02001907YS02006553    1.00   0.00  0.01  0.00  0.99  0.00  0.00  0.00  0.00  0.00
  YS02006558YS02006561    1.00   0.08  0.00  0.00  0.00  0.92  0.00  0.00  0.71  0.00
  YS02001633YS02163601    1.00   0.00  0.00  0.00  1.00  0.00  0.00  0.00  0.20  0.00
  YS02001644YS02001647    1.00   0.00  0.08  0.00  0.92  0.00  0.00  0.00  0.00  0.00
  YS02001745YS02001748    1.00   0.00  0.00  0.00  0.31  0.18  0.00  0.52  0.40  0.00
  YS02001748YS02001751    1.00   0.00  0.00  0.00  0.94  0.06  0.00  0.00  0.31  0.00
  YS02001751YS02001754    1.00   0.00  0.00  0.00  0.89  0.00  0.00  0.11  0.03  0.00
  YS02001754YS02001757    1.00   0.00  0.00  0.00  1.00  0.00  0.00  0.00  0.28  0.00
  YS02001882YS02001884    1.00   0.06  0.01  0.00  0.94  0.00  0.00  0.00  0.00  0.00
  YS02001884YS02001887    1.00   0.02  0.01  0.00  0.97  0.00  0.00  0.00  0.00  0.00
  YS02001890YS02001895    1.00   0.00  0.07  0.00  0.93  0.00  0.00  0.00  0.00  0.00
  YS02001895YS02001898    1.00   0.07  0.00  0.00  0.90  0.00  0.03  0.00  0.00  0.00
  YS02001898YS02001901    1.00   0.06  0.01  0.00  0.93  0.00  0.00  0.00  0.02  0.00
  YS02001901YS02001904    1.00   0.06  0.00  0.00  0.94  0.00  0.00  0.00  0.00  0.00
  YS02001904YS02001907    1.00   0.00  0.06  0.00  0.94  0.00  0.00  0.00  0.00  0.00
  YS02001887YS02001890    1.00   0.00  0.00  0.00  0.99  0.00  0.01  0.00  0.00  0.00
  YS02001652YS02001649    1.00   0.00  0.00  0.00  1.00  0.00  0.00  0.00  0.27  0.00
  YS02001655YS02001652    1.00   0.00  0.00  0.00  0.89  0.00  0.00  0.10  0.03  0.00
  YS02001658YS02001655    1.00   0.00  0.05  0.00  0.89  0.06  0.00  0.00  0.31  0.00
  YS02001661YS02001658    1.00   0.05  0.00  0.00  0.37  0.57  0.00  0.00  0.72  0.00
  YS02001664YS02001661    1.00   0.03  0.00  0.00  0.97  0.00  0.00  0.00  0.86  0.00
  YSB1154YSB6556          1.00   0.03  0.00  0.00  0.97  0.00  0.00  0.00  0.02  0.00
  YSB1174YSB1171          1.00   0.01  0.01  0.00  0.97  0.00  0.00  0.00  0.00  0.00
  YSB1171HS02004479       1.00   0.01  0.00  0.00  0.99  0.00  0.00  0.00  0.13  0.00
  HS02004881HS02006253    1.00   0.01  0.00  0.00  0.35  0.05  0.00  0.59  0.22  0.00
  YS02001793JiankangQianchi    1.00   0.00  0.00  0.00  0.83  0.17  0.00  0.00  0.79  0.00
  YS02001757CaochengTiaoxuchi    1.00   0.00  0.12  0.00  0.88  0.00  0.00  0.00  0.00  0.00
  WSF200WS02003060        1.00   0.00  0.11  0.00  0.23  0.66  0.00  0.00  0.34  0.00
  1                       1.00   0.00  0.00  0.00  0.00  1.00  0.00  0.00  0.35  0.00
  2                       1.00   1.00  0.00  0.00  0.00  0.00  0.00  0.00  0.00  0.00
  3                       1.00   0.59  0.00  0.00  0.00  0.41  0.00  0.00  0.24  0.00
  4                       1.00   1.00  0.00  0.00  0.00  0.00  0.00  0.00  0.00  0.00
  
  
  *************************
  Conduit Surcharge Summary
  *************************
  
  ----------------------------------------------------------------------------
                                                           Hours        Hours 
                         --------- Hours Full --------   Above Full   Capacity
  Conduit                Both Ends  Upstream  Dnstream   Normal Flow   Limited
  ----------------------------------------------------------------------------
  WS02006229WS02006228        0.01      0.01      0.01      0.54         0.01
  WS02006256WS02006235        4.10      4.10      5.48      2.06         0.01
  WS02006249WS02006248        0.01      0.01      0.01      0.89         0.01
  WS02006247WS02006245        0.01      0.01      0.01      1.94         0.01
  WS02006235WS02006234        0.01      0.01      0.01      3.96         0.01
  WS02006231WS02006230        0.01      0.01      0.01      4.31         0.01
  WS02006230WS02006229        0.01      0.36      0.01      4.75         0.01
  WS02006228WS02006109        0.01      0.01      0.01      1.14         0.01
  WS02006111WS02006112        0.01      0.01      0.45      0.01         0.01
  WS02004404WS02004405        0.01      0.01      0.01      4.63         0.01
  YS02001759YS02001757        0.01      0.01      1.47      0.01         0.01
  YS02001649YS02001757        0.01      0.01      1.47      0.01         0.01
  YS02001788YS02001790        0.01      0.01      0.29      0.01         0.01
  YS02001790YS02001791        0.29      0.29      0.52      0.01         0.01
  YS02001791YS02001793        0.52      0.52      0.81      0.01         0.01
  YS02001754YS02001757        0.01      0.01      1.47      0.01         0.01
  YS02001793JiankangQianchi        0.75      0.75      6.19      0.01         0.01
  YS02001757CaochengTiaoxuchi        0.01      0.01      1.47      0.01         0.01
  
  
  ***************
  Pumping Summary
  ***************
  
  ---------------------------------------------------------------------------------------------------------
                                                  Min       Avg       Max     Total     Power    % Time Off
                        Percent   Number of      Flow      Flow      Flow    Volume     Usage    Pump Curve
  Pump                 Utilized   Start-Ups       LPS       LPS       LPS  10^6 ltr     Kw-hr    Low   High
  ---------------------------------------------------------------------------------------------------------
  CC-Pump-1               25.05           4      0.00    108.06    199.98     0.699      2.68    0.0  100.0
  CC-Pump-2               29.80           3      0.00    124.28    200.00     0.960      3.46    0.0  100.0
  JK-Pump-1               17.02           2      0.00    164.96    300.00     0.764      9.09    0.0    0.0
  JK-Pump-2               29.78           6      0.00    135.31    300.00     1.069     12.95    0.0    0.0
  XR-Pump-1               51.04           7      0.00     64.42     95.00     0.940      4.16    0.0    0.0
  XR-Pump-2               21.27           5      0.00     48.39     95.00     0.314      2.01    0.0    0.0
  XR-Pump-3                4.27           1      0.00     71.40     95.00     0.086      1.01    0.0    0.0
  XR-Pump-4               21.26           5      0.00     47.94     94.98     0.285      1.26    0.0    0.0
  

  Analysis begun on:  Wed Jan  5 21:35:24 2022
  Analysis ended on:  Wed Jan  5 21:35:26 2022
  Total elapsed time: 00:00:02