
  EPA STORM WATER MANAGEMENT MODEL - VERSION 5.1 (Build 5.3.0.dev0)
  --------------------------------------------------------------

  WARNING 04: minimum elevation drop used for Conduit WS02004404WS02004405
  WARNING 03: negative offset ignored for Link YS02001904YS02001907
  
  *********************************************************
  NOTE: The summary statistics displayed in this report are
  based on results found at every computational time step,  
  not just on results from each reporting time step.
  *********************************************************
  
  ****************
  Analysis Options
  ****************
  Flow Units ............... LPS
  Process Models:
    Rainfall/Runoff ........ YES
    RDII ................... NO
    Snowmelt ............... NO
    Groundwater ............ NO
    Flow Routing ........... YES
    Ponding Allowed ........ NO
    Water Quality .......... NO
  Infiltration Method ...... HORTON
  Flow Routing Method ...... DYNWAVE
  Surcharge Method ......... EXTRAN
  Starting Date ............ 08/28/2015 08:00:00
  Ending Date .............. 08/28/2015 15:50:00
  Antecedent Dry Days ...... 8.0
  Report Time Step ......... 00:01:00
  Wet Time Step ............ 00:01:00
  Dry Time Step ............ 00:01:00
  Routing Time Step ........ 5.00 sec
  Variable Time Step ....... YES
  Maximum Trials ........... 8
  Number of Threads ........ 4
  Head Tolerance ........... 0.001500 m
  
  
  **************************        Volume         Depth
  Runoff Quantity Continuity     hectare-m            mm
  **************************     ---------       -------
  Total Precipitation ......         1.069         2.341
  Evaporation Loss .........         0.000         0.000
  Infiltration Loss ........         0.254         0.556
  Surface Runoff ...........         0.176         0.384
  Final Storage ............         0.640         1.401
  Continuity Error (%) .....        -0.010
  
  
  **************************        Volume        Volume
  Flow Routing Continuity        hectare-m      10^6 ltr
  **************************     ---------     ---------
  Dry Weather Inflow .......         0.616         6.165
  Wet Weather Inflow .......         0.175         1.754
  Groundwater Inflow .......         0.000         0.000
  RDII Inflow ..............         0.000         0.000
  External Inflow ..........         0.102         1.024
  External Outflow .........         0.414         4.145
  Flooding Loss ............         0.382         3.823
  Evaporation Loss .........         0.000         0.000
  Exfiltration Loss ........         0.000         0.000
  Initial Stored Volume ....         0.076         0.761
  Final Stored Volume ......         0.187         1.874
  Continuity Error (%) .....        -1.435
  
  
  *************************
  Highest Continuity Errors
  *************************
  Node HS02004842 (60.56%)
  Node YS02001884 (49.02%)
  Node YS02001774 (34.55%)
  Node HS02004901 (25.25%)
  Node YSB1171 (23.63%)
  
  
  ***************************
  Time-Step Critical Elements
  ***************************
  Link WS02006252WS02006251 (61.38%)
  Link 3 (12.66%)
  Link WS02006280WS02006229 (12.07%)
  Link WS02006238WS02006235 (5.09%)
  Link YS02001793JiankangQianchi (1.28%)
  
  
  ********************************
  Highest Flow Instability Indexes
  ********************************
  Link WS02006113WS02006111 (16)
  Link YS02001754YS02001757 (5)
  Link YS02001751YS02001754 (3)
  Link YS02001762YS02001759 (3)
  Link YS02001652YS02001649 (3)
  
  
  *************************
  Routing Time Step Summary
  *************************
  Minimum Time Step           :     0.50 sec
  Average Time Step           :     1.89 sec
  Maximum Time Step           :     5.00 sec
  Percent in Steady State     :     0.00
  Average Iterations per Step :     2.01
  Percent Not Converging      :     0.01
  
  
  ***************************
  Subcatchment Runoff Summary
  ***************************
  
  ------------------------------------------------------------------------------------------------------------------------------
                            Total      Total      Total      Total     Imperv       Perv      Total       Total     Peak  Runoff
                           Precip      Runon       Evap      Infil     Runoff     Runoff     Runoff      Runoff   Runoff   Coeff
  Subcatchment                 mm         mm         mm         mm         mm         mm         mm    10^6 ltr      LPS
  ------------------------------------------------------------------------------------------------------------------------------
  sub0                       2.34       0.00       0.00       0.16       0.91       0.00       0.91        0.00     0.15   0.389
  sub1                       2.34       0.00       0.00       0.26       0.84       0.00       0.84        0.01     0.84   0.357
  sub2                       2.34       0.00       0.00       0.87       0.58       0.00       0.58        0.01     0.77   0.247
  sub3                       2.34       0.00       0.00       0.87       0.56       0.00       0.56        0.01     1.66   0.238
  sub4                       2.34       0.00       0.00       0.26       0.75       0.00       0.75        0.02     1.93   0.320
  sub5                       2.34       0.00       0.00       0.16       0.87       0.00       0.87        0.01     1.50   0.373
  sub7                       2.34       0.00       0.00       0.21       0.88       0.00       0.88        0.00     0.50   0.375
  sub8                       2.34       0.00       0.00       0.21       0.87       0.00       0.87        0.01     0.90   0.372
  sub9                       2.34       0.00       0.00       0.21       0.87       0.00       0.87        0.00     0.67   0.371
  sub10                      2.34       0.00       0.00       0.19       0.87       0.00       0.87        0.01     1.48   0.371
  sub11                      2.34       0.00       0.00       0.19       0.88       0.00       0.88        0.01     1.68   0.377
  sub12                      2.34       0.00       0.00       0.30       0.85       0.00       0.85        0.01     1.37   0.362
  sub14                      2.34       0.00       0.00       0.21       0.87       0.00       0.87        0.01     1.32   0.370
  sub15                      2.34       0.00       0.00       0.70       0.66       0.00       0.66        0.01     1.80   0.284
  sub16                      2.34       0.00       0.00       0.77       0.65       0.00       0.65        0.01     1.20   0.278
  sub17                      2.34       0.00       0.00       0.75       0.66       0.00       0.66        0.01     0.98   0.281
  sub22                      2.34       0.00       0.00       1.01       0.55       0.00       0.55        0.03     5.72   0.234
  sub23                      2.34       0.00       0.00       0.87       0.61       0.00       0.61        0.03     4.84   0.259
  sub60                      2.34       0.00       0.00       0.28       0.40       0.00       0.40        0.12     9.23   0.172
  sub61                      2.34       0.00       0.00       0.40       0.46       0.00       0.46        0.14    12.17   0.199
  sub62                      2.34       0.00       0.00       0.19       0.49       0.00       0.49        0.15    12.28   0.208
  sub63                      2.34       0.00       0.00       0.68       0.43       0.00       0.43        0.13    11.53   0.182
  sub64                      2.34       0.00       0.00       0.35       0.38       0.00       0.38        0.12     8.74   0.163
  sub65                      2.34       0.00       0.00       0.30       0.38       0.00       0.38        0.12     8.83   0.164
  sub66                      2.34       0.00       0.00       0.68       0.34       0.00       0.34        0.10     8.14   0.146
  sub67                      2.34       0.00       0.00       0.19       0.58       0.00       0.58        0.18    16.33   0.246
  sub68                      2.34       0.00       0.00       0.33       0.50       0.00       0.50        0.16    13.59   0.216
  sub69                      2.34       0.00       0.00       0.35       0.59       0.00       0.59        0.14    13.87   0.253
  sub70                      2.34       0.60       0.00       1.00       0.56       0.00       0.56        0.13     8.40   0.191
  sub71                      2.34       0.00       0.00       0.19       0.45       0.00       0.45        0.11     8.42   0.193
  sub72                      2.34       0.00       0.00       0.16       0.28       0.00       0.28        0.06     3.62   0.117
  sub73                      2.34       0.55       0.00       0.98       0.50       0.00       0.50        0.12     7.44   0.173
  sub74                      2.34       0.00       0.00       1.76       0.18       0.00       0.18        0.07     7.75   0.078
  
  
  ******************
  Node Depth Summary
  ******************
  
  ---------------------------------------------------------------------------------
                                 Average  Maximum  Maximum  Time of Max    Reported
                                   Depth    Depth      HGL   Occurrence   Max Depth
  Node                 Type       Meters   Meters   Meters  days hr:min      Meters
  ---------------------------------------------------------------------------------
  WS02001211           JUNCTION     0.45     0.61     5.45     0  06:00        0.61
  WS02001212           JUNCTION     0.21     0.34     5.40     0  06:01        0.34
  WS02001213           JUNCTION     0.39     0.52     5.28     0  06:01        0.52
  WS02003069           JUNCTION     0.22     0.30     4.88     0  05:08        0.30
  WS02003072           JUNCTION     0.28     0.37     4.74     0  05:09        0.37
  WS02003073           JUNCTION     0.16     0.21     4.28     0  05:10        0.21
  WS02003060           JUNCTION     0.20     0.27     5.20     0  05:07        0.27
  WS02003066           JUNCTION     0.13     0.21     5.76     0  03:59        0.21
  WS02003059           JUNCTION     0.46     0.58     5.27     0  06:02        0.58
  WS02003067           JUNCTION     0.36     0.52     5.84     0  03:58        0.52
  WS02004401           JUNCTION     0.41     0.59     6.59     0  03:52        0.59
  WS02004402           JUNCTION     0.45     0.63     6.59     0  03:52        0.63
  WS02004403           JUNCTION     0.47     0.65     6.58     0  03:52        0.65
  WS02004404           JUNCTION     0.55     0.73     6.58     0  03:53        0.73
  WS02004406           JUNCTION     0.56     0.75     6.58     0  03:53        0.75
  WS02004409           JUNCTION     0.22     0.40     6.17     0  03:57        0.40
  WS02004410           JUNCTION     0.25     0.42     6.14     0  03:57        0.42
  WS02004411           JUNCTION     0.28     0.44     6.12     0  03:58        0.44
  WS02004412           JUNCTION     0.30     0.47     6.11     0  03:58        0.47
  WS02004413           JUNCTION     0.46     0.64     6.11     0  03:58        0.64
  WS02004405           JUNCTION     0.54     0.73     6.58     0  03:53        0.73
  WS02006109           JUNCTION     0.47     0.69     7.31     0  03:48        0.69
  WS02006110           JUNCTION     0.49     0.70     7.28     0  03:48        0.69
  WS02006111           JUNCTION     0.11     0.20     6.90     0  03:48        0.20
  WS02006112           JUNCTION     0.55     0.75     6.63     0  03:51        0.74
  WS02006113           JUNCTION     0.16     0.30     7.19     0  03:48        0.30
  WS02006115           JUNCTION     0.30     0.47     6.61     0  03:52        0.47
  WS02006116           JUNCTION     0.38     0.56     6.60     0  03:52        0.56
  WS02006230           JUNCTION     0.36     0.61     7.36     0  03:47        0.61
  WS02006231           JUNCTION     0.21     0.42     7.55     0  03:47        0.42
  WS02006232           JUNCTION     0.31     0.56     7.60     0  03:46        0.56
  WS02006234           JUNCTION     0.20     0.46     7.62     0  03:46        0.46
  WS02006235           JUNCTION     0.23     0.49     7.66     0  03:46        0.49
  WS02006238           JUNCTION     0.25     0.51     7.66     0  03:46        0.51
  WS02006240           JUNCTION     0.16     0.39     7.68     0  03:47        0.39
  WS02006242           JUNCTION     0.21     0.44     7.71     0  03:47        0.44
  WS02006243           JUNCTION     0.13     0.32     7.74     0  04:22        0.32
  WS02006245           JUNCTION     0.14     0.34     7.83     0  04:22        0.34
  WS02006247           JUNCTION     0.16     0.38     7.88     0  04:21        0.38
  WS02006248           JUNCTION     0.13     0.33     7.92     0  04:21        0.33
  WS02006249           JUNCTION     0.17     0.38     7.98     0  04:21        0.38
  WS02006239           JUNCTION     0.20     0.46     7.67     0  03:46        0.46
  WS02006251           JUNCTION     0.15     0.37     8.04     0  04:21        0.37
  WS02006252           JUNCTION     0.15     0.35     8.59     0  04:50        0.35
  WS02006253           JUNCTION     0.18     0.40     8.05     0  04:20        0.40
  WS02006256           JUNCTION     0.54     1.11     8.04     0  05:00        1.11
  WS02004138           JUNCTION     0.07     0.14     7.39     0  05:52        0.14
  WS02004407           JUNCTION     0.10     0.19     6.50     0  03:53        0.19
  WS02006228           JUNCTION     0.44     0.67     7.32     0  03:47        0.67
  WS02006229           JUNCTION     0.40     0.64     7.33     0  03:47        0.64
  WS02006280           JUNCTION     0.03     0.06     8.33     0  03:02        0.06
  WS02006284           JUNCTION     0.32     0.36     8.76     0  03:02        0.36
  WS02006287           JUNCTION     0.05     0.09     9.04     0  03:01        0.09
  WSF200               JUNCTION     0.09     0.17     5.41     0  03:59        0.17
  HS02004901           JUNCTION     0.08     0.12     9.95     0  03:01        0.12
  HS02004881           JUNCTION     0.00     0.01     9.04     0  02:57        0.01
  HS02004876           JUNCTION     0.02     0.04     9.07     0  02:58        0.04
  HS02004870           JUNCTION     0.00     0.01     9.30     0  02:55        0.01
  HS02004862           JUNCTION     0.01     0.01     9.40     0  02:59        0.01
  HS02004856           JUNCTION     0.06     0.08     9.50     0  02:56        0.08
  HS02004852           JUNCTION     0.00     0.01     9.52     0  03:01        0.01
  HS02004848           JUNCTION     0.00     0.01     9.61     0  02:58        0.01
  HS02004842           JUNCTION     0.32     0.34     9.61     0  02:54        0.34
  HS02004837           JUNCTION     0.02     0.03     9.61     0  02:54        0.03
  HS02004830           JUNCTION     0.03     0.04     9.51     0  02:55        0.04
  HS02004824           JUNCTION     0.01     0.02     9.42     0  02:59        0.02
  HS02004817           JUNCTION     0.40     0.44     9.29     0  03:01        0.44
  HS02004807           JUNCTION     0.09     0.12     9.29     0  03:01        0.12
  HS02004802           JUNCTION     0.13     0.15     9.28     0  03:01        0.15
  HS02004799           JUNCTION     0.07     0.11     9.32     0  02:59        0.11
  HS02004792           JUNCTION     0.01     0.03     9.55     0  02:58        0.03
  HS02004788           JUNCTION     0.01     0.02     9.92     0  03:01        0.02
  HS02004785           JUNCTION     0.02     0.04     9.95     0  03:02        0.04
  HS02004777           JUNCTION     0.11     0.15     9.95     0  03:01        0.15
  HS02004770           JUNCTION     0.08     0.12     9.95     0  03:00        0.12
  HS02004480           JUNCTION     0.04     0.08     9.32     0  03:00        0.08
  HS02004479           JUNCTION     0.07     0.11     9.32     0  03:00        0.11
  HS02004478           JUNCTION     0.03     0.05     9.28     0  03:01        0.05
  YS02001745           JUNCTION     0.03     0.04     7.56     0  03:01        0.04
  YS02001748           JUNCTION     0.03     0.05     7.13     0  03:01        0.05
  YS02001751           JUNCTION     0.11     0.16     7.03     0  04:14        0.15
  YS02001754           JUNCTION     0.33     0.43     7.04     0  04:17        0.43
  YS02001762           JUNCTION     0.50     0.63     7.03     0  04:16        0.63
  YS02001765           JUNCTION     0.46     0.58     7.03     0  04:16        0.58
  YS02001767           JUNCTION     0.43     0.54     7.03     0  04:15        0.54
  YS02001770           JUNCTION     0.42     0.54     7.03     0  04:17        0.54
  YS02001774           JUNCTION     0.48     0.61     7.03     0  04:17        0.61
  YS02001779           JUNCTION     0.26     0.35     7.03     0  04:14        0.35
  YS02001882           JUNCTION     0.13     0.19     6.90     0  03:08        0.19
  YS02001884           JUNCTION     0.22     0.29     6.90     0  03:08        0.29
  YS02001759           JUNCTION     0.53     0.67     7.03     0  04:16        0.67
  YS02001887           JUNCTION     0.30     0.37     6.90     0  03:08        0.37
  YS02001890           JUNCTION     0.33     0.40     6.90     0  03:08        0.40
  YS02001898           JUNCTION     0.11     0.16     6.89     0  03:09        0.16
  YS02001901           JUNCTION     0.22     0.29     6.89     0  03:10        0.29
  YS02001904           JUNCTION     0.20     0.26     6.89     0  03:09        0.26
  YS02001907           JUNCTION     0.52     0.60     6.89     0  03:09        0.60
  YS02001910           JUNCTION     0.31     0.39     6.89     0  03:10        0.39
  YS02001915           JUNCTION     0.13     0.18     6.89     0  03:08        0.18
  YS02001918           JUNCTION     0.04     0.04     7.11     0  03:09        0.04
  YS02001619           JUNCTION     0.07     0.11     7.03     0  04:17        0.11
  YS02001629           JUNCTION     0.37     0.48     7.03     0  04:15        0.48
  YS02001641           JUNCTION     0.47     0.60     7.03     0  04:17        0.60
  YS02001644           JUNCTION     0.48     0.60     7.03     0  04:17        0.60
  YS02001652           JUNCTION     0.33     0.44     7.03     0  04:16        0.43
  YS02001655           JUNCTION     0.13     0.18     7.03     0  04:17        0.18
  YS02001920           JUNCTION     0.11     0.12     7.13     0  03:08        0.12
  YS02001923           JUNCTION     0.02     0.03     7.29     0  03:06        0.03
  YS02001926           JUNCTION     0.07     0.08     7.53     0  03:05        0.08
  YS02001929           JUNCTION     0.02     0.03     7.72     0  03:01        0.03
  YS02001658           JUNCTION     0.03     0.05     7.19     0  03:01        0.05
  YS02001661           JUNCTION     0.09     0.12     7.52     0  03:01        0.12
  YS02001664           JUNCTION     0.03     0.04     7.97     0  03:01        0.04
  YS02001622           JUNCTION     0.09     0.13     7.03     0  04:17        0.13
  YS02001633           JUNCTION     0.46     0.58     7.03     0  04:15        0.58
  YS02001649           JUNCTION     0.51     0.64     7.03     0  04:18        0.64
  YS02001757           JUNCTION     0.63     0.77     7.03     0  04:17        0.77
  YS02001895           JUNCTION     0.10     0.16     6.90     0  03:10        0.16
  YS02001625           JUNCTION     0.34     0.43     7.03     0  04:16        0.43
  YS02163301           JUNCTION     0.40     0.52     7.03     0  04:15        0.52
  YS02163601           JUNCTION     0.51     0.63     7.03     0  04:16        0.63
  YS02164001           JUNCTION     0.45     0.57     7.03     0  04:17        0.57
  YS02001647           JUNCTION     0.32     0.42     7.03     0  04:17        0.42
  YSB1154              JUNCTION     0.20     0.26     9.32     0  03:00        0.26
  YSB6556              JUNCTION     0.10     0.15     9.32     0  03:00        0.15
  YSB1174              JUNCTION     0.16     0.21     9.32     0  03:00        0.21
  YSB1171              JUNCTION     0.36     0.41     9.32     0  03:00        0.41
  YS02006553           JUNCTION     0.52     0.61     6.89     0  03:09        0.61
  YS02006561           JUNCTION     0.05     0.08     6.74     0  03:10        0.08
  YS02006556           JUNCTION     0.50     0.58     6.89     0  03:09        0.58
  YS02006558           JUNCTION     0.54     0.63     6.89     0  03:10        0.63
  YS02001783           JUNCTION     0.09     0.13     6.27     0  03:10        0.13
  YS02001784           JUNCTION     0.12     0.17     6.24     0  03:10        0.17
  YS02001786           JUNCTION     0.10     0.15     6.18     0  03:11        0.15
  YS02001788           JUNCTION     0.07     0.10     6.08     0  03:11        0.10
  YS02001790           JUNCTION     0.08     0.12     5.77     0  03:12        0.12
  YS02001791           JUNCTION     0.06     0.08     5.55     0  03:12        0.08
  YS02001793           JUNCTION     0.03     0.05     4.88     0  03:47        0.05
  WS02004139           JUNCTION     0.38     0.55     5.46     0  06:00        0.55
  WSC                  OUTFALL      0.16     0.21     0.88     0  05:10        0.21
  3                    OUTFALL      0.01     0.11     6.11     0  05:00        0.11
  4                    OUTFALL      0.00     0.00     7.00     0  00:00        0.00
  5                    OUTFALL      0.00     0.00     5.00     0  00:00        0.00
  JK-storage           STORAGE      0.75     3.06     3.86     0  00:50        3.06
  CC-storage           STORAGE      0.00     0.02     7.02     0  04:12        0.02
  XR-storage           STORAGE      7.68     7.72     5.72     0  00:46        7.72
  
  
  *******************
  Node Inflow Summary
  *******************
  
  -------------------------------------------------------------------------------------------------
                                  Maximum  Maximum                  Lateral       Total        Flow
                                  Lateral    Total  Time of Max      Inflow      Inflow     Balance
                                   Inflow   Inflow   Occurrence      Volume      Volume       Error
  Node                 Type           LPS      LPS  days hr:min    10^6 ltr    10^6 ltr     Percent
  -------------------------------------------------------------------------------------------------
  WS02001211           JUNCTION      7.35   197.18     0  06:00       0.207        1.88       1.395
  WS02001212           JUNCTION      0.00   196.75     0  06:00           0        1.85       0.600
  WS02001213           JUNCTION      0.00   196.59     0  06:01           0        1.84       0.743
  WS02003069           JUNCTION      0.32   284.62     0  05:08     0.00902        3.95       0.287
  WS02003072           JUNCTION      0.00   283.57     0  05:08           0        3.94       0.421
  WS02003073           JUNCTION      1.82   284.62     0  05:09      0.0514        3.97       0.407
  WS02003060           JUNCTION     16.53   284.35     0  05:07       0.466        3.96       0.288
  WS02003066           JUNCTION      0.00   203.47     0  03:59           0        1.69       0.112
  WS02003059           JUNCTION      0.00   195.93     0  06:01           0        1.84       1.409
  WS02003067           JUNCTION      0.00   203.48     0  03:58           0        1.69       0.298
  WS02004401           JUNCTION      0.00   232.86     0  03:50           0        1.82       0.666
  WS02004402           JUNCTION      0.00   227.40     0  03:50           0        1.81       0.669
  WS02004403           JUNCTION      0.00   223.24     0  03:50           0        1.79       0.648
  WS02004404           JUNCTION      0.16   220.16     0  03:50     0.00457        1.79       0.530
  WS02004406           JUNCTION      0.00   216.66     0  03:53           0        1.76       1.313
  WS02004409           JUNCTION      0.00   215.98     0  03:53           0        1.74       0.279
  WS02004410           JUNCTION      0.00   212.23     0  03:54           0        1.73       0.387
  WS02004411           JUNCTION      0.00   207.94     0  03:55           0        1.73       0.454
  WS02004412           JUNCTION      0.00   205.31     0  03:55           0        1.72       0.568
  WS02004413           JUNCTION      0.00   203.75     0  03:58           0        1.71       0.970
  WS02004405           JUNCTION      0.04   218.32     0  03:51     0.00107        1.78       0.797
  WS02006109           JUNCTION      1.23   256.30     0  03:47      0.0347        1.87       0.643
  WS02006110           JUNCTION      0.00   255.52     0  03:48           0        1.86       0.600
  WS02006111           JUNCTION      0.00   256.08     0  03:48           0        1.85       0.072
  WS02006112           JUNCTION      0.98   254.00     0  03:48     0.00565        1.85       0.899
  WS02006113           JUNCTION      0.00   254.75     0  03:48           0        1.85       0.157
  WS02006115           JUNCTION      0.00   247.98     0  03:49           0        1.84       0.567
  WS02006116           JUNCTION      0.00   239.57     0  03:49           0        1.83       0.437
  WS02006230           JUNCTION     10.28   238.99     0  03:47        0.29        1.51       0.279
  WS02006231           JUNCTION      0.00   229.04     0  03:46           0        1.22       0.211
  WS02006232           JUNCTION      0.00   229.38     0  03:46           0        1.23       0.556
  WS02006234           JUNCTION      0.00   230.04     0  03:46           0        1.23      -0.261
  WS02006235           JUNCTION      0.00   230.48     0  03:45           0        1.28       0.636
  WS02006238           JUNCTION      0.00   168.46     0  04:23           0       0.758      -0.389
  WS02006240           JUNCTION      0.00   174.88     0  04:23           0       0.721       0.573
  WS02006242           JUNCTION      0.00   179.16     0  04:22           0       0.711       0.843
  WS02006243           JUNCTION      0.00   181.56     0  04:22           0         0.7      -0.295
  WS02006245           JUNCTION      0.00   183.27     0  04:22           0       0.709       1.568
  WS02006247           JUNCTION      0.00   184.96     0  04:21           0       0.713       0.591
  WS02006248           JUNCTION      0.00   186.41     0  04:21           0       0.709      -0.609
  WS02006249           JUNCTION      0.00   188.46     0  04:21           0       0.719       1.526
  WS02006239           JUNCTION      0.00   171.68     0  04:23           0       0.736      -0.172
  WS02006251           JUNCTION      0.08   200.15     0  04:50     0.00217       0.745       0.157
  WS02006252           JUNCTION      0.00   199.95     0  04:50           0       0.689       0.027
  WS02006253           JUNCTION      0.15    23.05     0  04:51    0.000738      0.0552       2.096
  WS02006256           JUNCTION      0.00   300.00     0  05:00           0       0.734       0.236
  WS02004138           JUNCTION      0.00   190.00     0  05:00           0        1.68       0.011
  WS02004407           JUNCTION      0.00   216.13     0  03:53           0        1.74       0.133
  WS02006228           JUNCTION      0.00   256.03     0  03:47           0        1.85       0.430
  WS02006229           JUNCTION      0.00   256.96     0  03:47           0        1.85       0.375
  WS02006280           JUNCTION      0.00    32.46     0  03:02           0       0.347       0.022
  WS02006284           JUNCTION      0.10    32.47     0  03:01      0.0027       0.348       0.339
  WS02006287           JUNCTION      0.00    32.37     0  03:01           0       0.346       0.199
  WSF200               JUNCTION      0.00   203.46     0  03:59           0        1.69       0.077
  HS02004901           JUNCTION      1.20     1.21     0  02:11     0.00681     0.00694      33.775
  HS02004881           JUNCTION      0.50     4.39     0  02:56     0.00295      0.0312       0.185
  HS02004876           JUNCTION      0.84     3.92     0  02:54     0.00555      0.0287       1.747
  HS02004870           JUNCTION      0.90     3.08     0  02:54     0.00556      0.0232       0.436
  HS02004862           JUNCTION      0.97     2.19     0  02:55       0.011      0.0178       0.882
  HS02004856           JUNCTION      0.67     1.22     0  02:54     0.00417     0.00824      20.981
  HS02004852           JUNCTION      0.00     0.57     0  02:59           0      0.0041       0.937
  HS02004848           JUNCTION      1.66     1.66     0  02:58      0.0125      0.0125       0.279
  HS02004842           JUNCTION      0.00     4.49     0  00:03           0      0.0215     153.555
  HS02004837           JUNCTION      7.83     8.92     0  02:54       0.189       0.197       0.402
  HS02004830           JUNCTION      0.15     9.07     0  02:55     0.00423       0.187       0.659
  HS02004824           JUNCTION      1.98    11.04     0  02:59       0.017       0.203       0.264
  HS02004817           JUNCTION      0.60    11.64     0  02:59      0.0169        0.22       8.198
  HS02004807           JUNCTION      1.68    13.26     0  02:58      0.0102       0.213       2.016
  HS02004802           JUNCTION      0.00    13.25     0  03:01           0       0.209       1.974
  HS02004799           JUNCTION      1.32    16.43     0  02:57     0.00825       0.139       1.613
  HS02004792           JUNCTION      6.00    15.14     0  02:57      0.0425       0.131       0.322
  HS02004788           JUNCTION      3.47     9.32     0  03:00      0.0585      0.0897       0.431
  HS02004785           JUNCTION      0.15     5.92     0  02:59     0.00423      0.0334       1.411
  HS02004777           JUNCTION      0.03     5.86     0  02:54    0.000846      0.0335      18.178
  HS02004770           JUNCTION      4.84     5.96     0  02:49      0.0289      0.0341       9.987
  HS02004480           JUNCTION      0.00    19.14     0  02:59           0       0.154       0.374
  HS02004479           JUNCTION      0.00     2.94     0  01:43           0      0.0273       2.732
  HS02004478           JUNCTION      0.00    32.37     0  03:01           0       0.347       0.225
  YS02001745           JUNCTION      9.24     9.24     0  03:01       0.122       0.122       0.123
  YS02001748           JUNCTION      0.04     9.27     0  03:01     0.00127       0.123       0.065
  YS02001751           JUNCTION      0.01    14.75     0  06:29     0.00031       0.135       1.297
  YS02001754           JUNCTION      0.26    43.31     0  06:29     0.00733       0.209       4.291
  YS02001762           JUNCTION      0.00    20.54     0  07:11           0       0.152       9.412
  YS02001765           JUNCTION      0.00    25.15     0  06:25           0       0.145      10.426
  YS02001767           JUNCTION      0.54    18.67     0  06:21      0.0151       0.149      13.974
  YS02001770           JUNCTION     12.43    14.14     0  07:07       0.154       0.166      10.278
  YS02001774           JUNCTION      0.00     9.83     0  06:22           0      0.0405      52.793
  YS02001779           JUNCTION      0.01     6.74     0  06:56    0.000141      0.0155      44.127
  YS02001882           JUNCTION      0.00     0.94     0  02:10           0      0.0016     167.979
  YS02001884           JUNCTION      0.00     2.86     0  02:14           0     0.00689      96.144
  YS02001759           JUNCTION     12.21    33.29     0  07:11       0.144        0.27       6.024
  YS02001887           JUNCTION     16.78    16.78     0  03:01        0.19       0.192       2.957
  YS02001890           JUNCTION      0.00    16.18     0  03:02           0        0.18       3.533
  YS02001898           JUNCTION      0.00    15.92     0  03:05           0       0.172       0.708
  YS02001901           JUNCTION      0.00    15.93     0  03:08           0       0.173       2.352
  YS02001904           JUNCTION      0.00    15.89     0  03:10           0       0.173       2.206
  YS02001907           JUNCTION      0.00    30.45     0  03:10           0       0.404       5.075
  YS02001910           JUNCTION      0.00    14.83     0  03:05           0       0.241       3.519
  YS02001915           JUNCTION      8.44    14.82     0  03:01       0.107       0.244       1.125
  YS02001918           JUNCTION      0.00     6.54     0  03:08           0       0.137       0.352
  YS02001619           JUNCTION      8.14     8.14     0  03:01       0.105       0.105       0.328
  YS02001629           JUNCTION      0.00    10.38     0  06:31           0      0.0961       5.867
  YS02001641           JUNCTION      0.00    21.97     0  07:13           0       0.182       7.045
  YS02001644           JUNCTION      8.78    27.06     0  04:24       0.117       0.281       5.473
  YS02001652           JUNCTION      0.00    16.00     0  06:21           0       0.137       6.508
  YS02001655           JUNCTION      0.15    11.65     0  03:01     0.00434       0.134       1.934
  YS02001920           JUNCTION      2.87     6.55     0  03:06      0.0809       0.138       0.909
  YS02001923           JUNCTION      0.04     3.68     0  03:05     0.00106      0.0576       0.185
  YS02001926           JUNCTION      0.05     3.67     0  03:01     0.00147      0.0573       1.460
  YS02001929           JUNCTION      3.62     3.62     0  03:01       0.056       0.056       0.163
  YS02001658           JUNCTION      0.00    11.51     0  03:01           0       0.129       0.090
  YS02001661           JUNCTION      0.00    11.52     0  03:01           0       0.129       0.427
  YS02001664           JUNCTION     11.53    11.53     0  03:01       0.129       0.129       0.066
  YS02001622           JUNCTION      0.00     8.20     0  03:01           0       0.105       1.779
  YS02001633           JUNCTION      9.03    18.44     0  03:46       0.124       0.207       9.116
  YS02001649           JUNCTION      0.00    43.40     0  06:28           0       0.374       6.413
  YS02001757           JUNCTION      0.00    88.45     0  06:30           0       0.746       9.864
  YS02001895           JUNCTION      0.00    16.00     0  03:05           0       0.174       1.126
  YS02001625           JUNCTION      0.00     9.60     0  03:02           0       0.105      13.766
  YS02163301           JUNCTION      0.00    12.98     0  06:30           0      0.0977      13.222
  YS02163601           JUNCTION      0.11    19.67     0  06:31      0.0031       0.189      10.709
  YS02164001           JUNCTION      0.00    21.37     0  07:15           0        0.18       6.564
  YS02001647           JUNCTION      0.00    29.15     0  04:25           0       0.257       4.516
  YSB1154              JUNCTION      1.50     1.61     0  01:15     0.00989      0.0114      14.492
  YSB6556              JUNCTION      0.00     2.12     0  01:37           0      0.0125      10.978
  YSB1174              JUNCTION      1.37     1.37     0  02:09     0.00741     0.00852      17.733
  YSB1171              JUNCTION      0.00     3.04     0  01:43           0      0.0267      30.935
  YS02006553           JUNCTION      0.00    30.54     0  03:11           0        0.39       3.373
  YS02006561           JUNCTION      0.00    44.10     0  03:10           0       0.531       0.055
  YS02006556           JUNCTION      0.00    30.56     0  03:11           0       0.392       2.367
  YS02006558           JUNCTION     14.47    44.11     0  03:09        0.18       0.552       0.701
  YS02001783           JUNCTION      0.00    44.09     0  03:10           0       0.531       0.129
  YS02001784           JUNCTION      1.06    45.14     0  03:10      0.0299        0.56       0.217
  YS02001786           JUNCTION      0.06    45.18     0  03:10     0.00159        0.56       0.227
  YS02001788           JUNCTION      0.07    45.24     0  03:11       0.002       0.561       0.116
  YS02001790           JUNCTION      0.15    45.40     0  03:11     0.00437       0.565       0.151
  YS02001791           JUNCTION      0.00    45.40     0  03:12           0       0.564       0.073
  YS02001793           JUNCTION      0.00    45.40     0  03:12           0       0.564       0.034
  WS02004139           JUNCTION      0.32   190.32     0  05:52     0.00905        1.69       1.228
  WSC                  OUTFALL       0.00   283.49     0  05:10           0        3.96       0.000
  3                    OUTFALL       0.00   169.21     0  05:00           0       0.187       0.000
  4                    OUTFALL       0.00     0.00     0  00:00           0           0       0.000 ltr
  5                    OUTFALL       0.00     0.00     0  00:00           0           0       0.000 ltr
  JK-storage           STORAGE       0.00    45.40     0  03:12           0       0.714      -6.010
  CC-storage           STORAGE       0.00    69.82     0  04:23           0       0.604     -12.227
  XR-storage           STORAGE     215.19   215.19     0  03:01        5.83        6.43       0.004
  
  
  **********************
  Node Surcharge Summary
  **********************
  
  No nodes were surcharged.
  
  
  *********************
  Node Flooding Summary
  *********************
  
  Flooding refers to all water that overflows a node, whether it ponds or not.
  --------------------------------------------------------------------------
                                                             Total   Maximum
                                 Maximum   Time of Max       Flood    Ponded
                        Hours       Rate    Occurrence      Volume     Depth
  Node                 Flooded       LPS   days hr:min    10^6 ltr    Meters
  --------------------------------------------------------------------------
  XR-storage              7.06    215.19      0  03:01       3.823     0.000
  
  
  **********************
  Storage Volume Summary
  **********************
  
  --------------------------------------------------------------------------------------------------
                         Average     Avg  Evap Exfil       Maximum     Max    Time of Max    Maximum
                          Volume    Pcnt  Pcnt  Pcnt        Volume    Pcnt     Occurrence    Outflow
  Storage Unit           1000 m3    Full  Loss  Loss       1000 m3    Full    days hr:min        LPS
  --------------------------------------------------------------------------------------------------
  JK-storage               0.038      13     0     0         0.154      53       0  00:50     300.00
  CC-storage               0.006       0     0     0         0.061       0       0  04:12     199.95
  XR-storage               0.922      99     0     0         0.926     100       0  00:46     190.00
  
  
  ***********************
  Outfall Loading Summary
  ***********************
  
  -----------------------------------------------------------
                         Flow       Avg       Max       Total
                         Freq      Flow      Flow      Volume
  Outfall Node           Pcnt       LPS       LPS    10^6 ltr
  -----------------------------------------------------------
  WSC                   99.99    160.04    283.49       3.958
  3                     17.00     91.47    169.21       0.187
  4                      0.00      0.00      0.00       0.000
  5                      0.00      0.00      0.00       0.000
  -----------------------------------------------------------
  System                29.25    251.52    328.10       4.145
  
  
  ********************
  Link Flow Summary
  ********************
  
  -----------------------------------------------------------------------------
                                 Maximum  Time of Max   Maximum    Max/    Max/
                                  |Flow|   Occurrence   |Veloc|    Full    Full
  Link                 Type          LPS  days hr:min     m/sec    Flow   Depth
  -----------------------------------------------------------------------------
  WS02003066WSF200     CONDUIT    203.46     0  03:59      2.20    0.03    0.14
  WS02006287WS02006284 CONDUIT     32.37     0  03:01      0.81    0.02    0.10
  WS02006284WS02006280 CONDUIT     32.46     0  03:02      1.07    0.01    0.08
  WS02006280WS02006229 CONDUIT     32.46     0  03:02      1.71    0.01    0.06
  WS02006229WS02006228 CONDUIT    256.03     0  03:47      0.60    0.85    0.80
  WS02006256WS02006235 CONDUIT    149.98     0  00:55      2.14    1.59    1.00
  WS02006253WS02006251 CONDUIT     67.97     0  04:50      0.40    0.20    0.54
  WS02006252WS02006251 CONDUIT    200.07     0  04:50      8.69    0.73    0.76
  WS02006251WS02006249 CONDUIT    188.46     0  04:21      0.91    0.54    0.53
  WS02006249WS02006248 CONDUIT    186.41     0  04:21      1.00    1.02    0.49
  WS02006248WS02006247 CONDUIT    184.96     0  04:21      0.97    0.40    0.50
  WS02006247WS02006245 CONDUIT    183.27     0  04:22      0.94    1.45    0.51
  WS02006245WS02006243 CONDUIT    181.56     0  04:22      1.05    0.54    0.47
  WS02006243WS02006242 CONDUIT    179.16     0  04:22      0.90    0.38    0.52
  WS02006242WS02006240 CONDUIT    174.88     0  04:23      0.81    0.69    0.59
  WS02006240WS02006239 CONDUIT    171.68     0  04:23      0.93    0.54    0.58
  WS02006239WS02006238 CONDUIT    168.46     0  04:23      0.80    0.54    0.68
  WS02006238WS02006235 CONDUIT    166.71     0  03:47      0.75    0.37    0.72
  WS02006235WS02006234 CONDUIT    230.04     0  03:46      1.01    2.43    0.66
  WS02006234WS02006232 CONDUIT    229.38     0  03:46      0.83    0.46    0.73
  WS02006232WS02006231 CONDUIT    229.04     0  03:46      0.80    0.48    0.70
  WS02006231WS02006230 CONDUIT    228.71     0  03:47      1.15    3.47    0.51
  WS02006230WS02006229 CONDUIT    238.40     0  03:47      0.71    5.31    0.85
  WS02006228WS02006109 CONDUIT    255.07     0  03:47      0.57    1.11    0.84
  WS02006116WS02004401 CONDUIT    232.86     0  03:50      0.75    0.32    0.58
  WS02006115WS02006116 CONDUIT    239.57     0  03:49      0.92    0.31    0.48
  WS02006113WS02006111 CONDUIT    256.08     0  03:48      1.92    0.31    0.31
  WS02006112WS02006115 CONDUIT    247.98     0  03:49      0.52    0.15    0.60
  WS02006111WS02006112 CONDUIT    253.80     0  03:48      0.87    0.12    0.57
  WS02006110WS02006113 CONDUIT    254.75     0  03:48      0.77    0.23    0.62
  WS02006109WS02006110 CONDUIT    255.52     0  03:48      0.60    0.49    0.80
  WS02004411WS02004412 CONDUIT    205.31     0  03:55      0.65    0.29    0.46
  WS02004401WS02004402 CONDUIT    227.40     0  03:50      0.77    0.27    0.61
  WS02004413WS02003067 CONDUIT    203.48     0  03:58      0.65    0.09    0.42
  WS02004412WS02004413 CONDUIT    203.75     0  03:58      0.73    0.14    0.55
  WS02004410WS02004411 CONDUIT    207.94     0  03:55      0.67    0.28    0.43
  WS02004409WS02004410 CONDUIT    212.23     0  03:54      0.75    0.27    0.41
  WS02004407WS02004409 CONDUIT    215.98     0  03:53      1.19    0.08    0.29
  WS02004406WS02004407 CONDUIT    216.13     0  03:53      0.60    0.10    0.47
  WS02004405WS02004406 CONDUIT    216.66     0  03:53      0.55    0.43    0.74
  WS02004404WS02004405 CONDUIT    218.28     0  03:51      0.59    2.14    0.73
  WS02004403WS02004404 CONDUIT    220.00     0  03:50      0.73    0.16    0.69
  WS02004402WS02004403 CONDUIT    223.24     0  03:50      0.83    0.32    0.64
  WS02004139WS02001211 CONDUIT    189.84     0  06:00      0.41    0.24    0.44
  WS02004138WS02004139 CONDUIT    190.00     0  05:52      1.27    0.04    0.32
  WS02003067WS02003066 CONDUIT    203.47     0  03:59      0.70    0.07    0.30
  WS02001213WS02003059 CONDUIT    195.93     0  06:01      0.45    0.32    0.54
  WS02001212WS02001213 CONDUIT    196.59     0  06:01      1.03    0.30    0.29
  WS02001211WS02001212 CONDUIT    196.75     0  06:00      0.54    0.15    0.47
  WS02003072WS02003073 CONDUIT    282.80     0  05:09      1.14    0.61    0.27
  WS02003069WS02003072 CONDUIT    283.57     0  05:08      1.10    0.14    0.28
  WS02003060WS02003069 CONDUIT    284.30     0  05:08      1.38    0.11    0.24
  WS02003059WS02003060 CONDUIT    195.19     0  06:02      0.62    0.13    0.42
  HS02004901HS02004770 CONDUIT      1.14     0  02:57      0.02    0.00    0.17
  HS02004876HS02004881 CONDUIT      3.91     0  02:58      0.17    0.04    0.03
  HS02004870HS02004876 CONDUIT      3.08     0  02:55      0.12    0.00    0.04
  HS02004842HS02004848 CONDUIT      1.09     0  02:59      0.01    0.00    0.24
  HS02004837HS02004842 CONDUIT      4.49     0  00:03      0.42    0.00    0.26
  HS02004830HS02004837 CONDUIT      8.92     0  02:55      0.29    0.01    0.04
  HS02004824HS02004830 CONDUIT      9.07     0  02:56      0.33    0.01    0.04
  HS02004817HS02004824 CONDUIT     11.04     0  02:59      0.17    0.00    0.33
  HS02004770HS02004777 CONDUIT      5.83     0  02:54      0.05    0.01    0.19
  HS02004799HS02004480 CONDUIT     16.42     0  02:58      0.18    0.02    0.13
  HS02004792HS02004799 CONDUIT     15.14     0  02:58      0.23    0.01    0.10
  HS02004788HS02004792 CONDUIT      9.32     0  03:01      0.40    0.01    0.03
  HS02004785HS02004788 CONDUIT      5.90     0  03:01      0.18    0.04    0.05
  HS02004777HS02004785 CONDUIT      5.77     0  02:59      0.07    0.01    0.14
  HS02004480HS02004478 CONDUIT     19.12     0  03:00      0.38    0.08    0.07
  HS02004479HS02004480 CONDUIT      2.94     0  01:43      0.15    0.00    0.14
  HS02004862HS02004870 CONDUIT      2.19     0  02:57      0.19    0.00    0.02
  HS02004848HS02004852 CONDUIT      0.57     0  02:59      0.11    0.00    0.01
  HS02004856HS02004862 CONDUIT      1.22     0  02:56      0.12    0.00    0.01
  HS02004852HS02004856 CONDUIT      0.56     0  03:01      0.01    0.00    0.06
  HS02004802HS02004478 CONDUIT     13.25     0  03:01      0.13    0.01    0.15
  HS02004478WS02006287 CONDUIT     32.37     0  03:01      0.55    0.01    0.07
  HS02004817HS02004807 CONDUIT     11.66     0  03:02      0.05    0.01    0.39
  HS02004807HS02004802 CONDUIT     13.25     0  03:01      0.19    0.03    0.19
  YS02001759YS02001757 CONDUIT     28.55     0  03:41      0.12    0.02    0.72
  YS02001762YS02001759 CONDUIT     29.42     0  07:11      0.17    0.03    0.65
  YS02001765YS02001762 CONDUIT     20.54     0  07:11      0.21    0.02    0.61
  YS02001770YS02001767 CONDUIT     16.56     0  07:10      0.22    0.07    0.54
  YS02001774YS02001770 CONDUIT      9.83     0  06:22      0.12    0.01    0.56
  YS02001779YS02001774 CONDUIT      6.90     0  07:41      0.02    0.00    0.48
  YS02001649YS02001757 CONDUIT     41.67     0  04:23      0.09    0.03    0.71
  YS02001767YS02001765 CONDUIT     25.15     0  06:25      0.25    0.03    0.56
  YS02006561YS02001783 CONDUIT     44.09     0  03:10      1.08    0.02    0.14
  YS02001783YS02001784 CONDUIT     44.08     0  03:10      0.66    0.06    0.19
  YS02001784YS02001785 CONDUIT     45.12     0  03:10      0.64    0.11    0.20
  YS02001788YS02001790 CONDUIT     45.24     0  03:11      1.07    0.03    0.14
  YS02001790YS02001791 CONDUIT     45.40     0  03:12      1.19    0.05    0.13
  YS02001791YS02001793 CONDUIT     45.40     0  03:12      2.43    0.02    0.08
  YS02001910YS02001907 CONDUIT     14.71     0  03:08      0.49    0.01    0.49
  YS02001786YS02001788 CONDUIT     45.17     0  03:11      0.92    0.09    0.15
  YS02001915YS02001910 CONDUIT     14.83     0  03:05      0.44    0.01    0.28
  YS02001918YS02001915 CONDUIT      6.54     0  03:09      0.44    0.00    0.11
  YS02001923YS02001920 CONDUIT      3.68     0  03:06      0.14    0.00    0.08
  YS02001926YS02001923 CONDUIT      3.64     0  03:05      0.22    0.01    0.05
  YS02001929YS02001926 CONDUIT      3.62     0  03:01      0.21    0.00    0.06
  YS02001920YS02001918 CONDUIT      6.54     0  03:08      0.21    0.01    0.08
  YS02001629YS02163301 CONDUIT     12.98     0  06:30      0.05    0.02    0.50
  YS02001619YS02001622 CONDUIT      8.20     0  03:01      0.36    0.01    0.12
  YS02001622YS02001625 CONDUIT      9.60     0  03:02      0.14    0.01    0.28
  YS02001625YS02001629 CONDUIT     10.38     0  06:31      0.07    0.00    0.27
  YS02163301YS02001633 CONDUIT     14.38     0  07:16      0.05    0.01    0.55
  YS02163601YS02164001 CONDUIT     21.37     0  07:15      0.05    0.02    0.60
  YS02164001YS02001641 CONDUIT     21.97     0  07:13      0.06    0.03    0.58
  YS02001641YS02001644 CONDUIT     21.98     0  07:13      0.07    0.07    0.60
  YS02001647YS02001649 CONDUIT     30.82     0  07:14      0.10    0.02    0.53
  YS02006553YS02006556 CONDUIT     30.56     0  03:11      0.18    0.03    0.58
  YS02006556YS02006558 CONDUIT     30.55     0  03:12      0.07    0.02    0.60
  YSB6556YSB1171       CONDUIT      2.12     0  01:37      0.03    0.00    0.40
  YS02001907YS02006553 CONDUIT     30.54     0  03:11      0.06    0.04    0.66
  YS02006558YS02006561 CONDUIT     44.10     0  03:10      1.33    0.10    0.17
  YS02001633YS02163601 CONDUIT     19.56     0  06:31      0.06    0.02    0.60
  YS02001644YS02001647 CONDUIT     29.15     0  04:25      0.08    0.02    0.51
  YS02001745YS02001748 CONDUIT      9.23     0  03:01      0.77    0.00    0.04
  YS02001748YS02001751 CONDUIT      9.27     0  03:01      0.65    0.00    0.10
  YS02001751YS02001754 CONDUIT     19.79     0  07:07      0.62    0.01    0.26
  YS02001754YS02001757 CONDUIT     37.89     0  06:30      0.33    0.02    0.60
  YS02001882YS02001884 CONDUIT      0.94     0  02:10      0.06    0.00    0.21
  YS02001884YS02001887 CONDUIT      2.86     0  02:14      0.04    0.00    0.30
  YS02001890YS02001895 CONDUIT     16.00     0  03:05      0.09    0.01    0.28
  YS02001895YS02001898 CONDUIT     15.92     0  03:05      0.28    0.03    0.14
  YS02001898YS02001901 CONDUIT     15.93     0  03:08      0.12    0.01    0.22
  YS02001901YS02001904 CONDUIT     15.89     0  03:10      0.17    0.02    0.27
  YS02001904YS02001907 CONDUIT     15.92     0  03:10      0.05    0.01    0.43
  YS02001887YS02001890 CONDUIT     16.18     0  03:02      0.10    0.03    0.36
  YS02001652YS02001649 CONDUIT     16.75     0  06:28      0.21    0.01    0.54
  YS02001655YS02001652 CONDUIT     11.64     0  03:02      0.65    0.01    0.29
  YS02001658YS02001655 CONDUIT     11.50     0  03:01      0.73    0.00    0.11
  YS02001661YS02001658 CONDUIT     11.51     0  03:01      0.79    0.00    0.05
  YS02001664YS02001661 CONDUIT     11.52     0  03:01      0.39    0.00    0.08
  YSB1154YSB6556       CONDUIT      1.59     0  01:15      0.19    0.00    0.29
  YSB1174YSB1171       CONDUIT      1.42     0  02:12      0.02    0.00    0.41
  YSB1171HS02004479    CONDUIT      3.04     0  01:43      0.54    0.00    0.30
  HS02004881HS02006253 CONDUIT      4.39     0  02:57      0.70    0.00    0.05
  YS02001793JiankangQianchi CONDUIT     45.40     0  03:12      7.15    0.00    0.52
  YS02001757CaochengTiaoxuchi CONDUIT     69.82     0  04:23      0.25    0.03    0.40
  WSF200WS02003060     CONDUIT    203.43     0  03:59      1.51    0.05    0.18
  1                    CONDUIT    283.49     0  05:10      2.33    0.10    0.21
  2                    CONDUIT      0.00     0  00:00      0.00    0.00    0.00
  3                    CONDUIT    169.21     0  05:00      7.50    0.27    0.36
  4                    CONDUIT      0.00     0  00:00      0.00    0.00    0.00
  CC-Pump-1            PUMP       161.22     0  05:38              0.81
  CC-Pump-2            PUMP       199.95     0  04:50              1.00
  JK-Pump-1            PUMP       299.95     0  03:40              1.00
  JK-Pump-2            PUMP       300.00     0  05:00              1.00
  XR-Pump-1            PUMP        95.00     0  02:00              1.00
  XR-Pump-2            PUMP        95.00     0  05:00              1.00
  XR-Pump-3            PUMP        94.96     0  04:20              1.00
  XR-Pump-4            PUMP        95.00     0  05:00              1.00
  
  
  ***************************
  Flow Classification Summary
  ***************************
  
  -------------------------------------------------------------------------------------
                      Adjusted    ---------- Fraction of Time in Flow Class ---------- 
                       /Actual         Up    Down  Sub   Sup   Up    Down  Norm  Inlet 
  Conduit               Length    Dry  Dry   Dry   Crit  Crit  Crit  Crit  Ltd   Ctrl  
  -------------------------------------------------------------------------------------
  WS02003066WSF200        1.00   0.11  0.00  0.00  0.00  0.89  0.00  0.00  0.80  0.00
  WS02006287WS02006284    1.00   0.04  0.07  0.00  0.89  0.00  0.00  0.00  0.81  0.00
  WS02006284WS02006280    1.00   0.09  0.00  0.00  0.00  0.00  0.00  0.91  0.00  0.00
  WS02006280WS02006229    1.00   0.09  0.00  0.00  0.00  0.00  0.00  0.91  0.00  0.00
  WS02006229WS02006228    1.00   0.00  0.00  0.00  1.00  0.00  0.00  0.00  0.00  0.00
  WS02006256WS02006235    1.00   0.04  0.00  0.00  0.96  0.00  0.00  0.00  0.00  0.00
  WS02006253WS02006251    1.00   0.02  0.03  0.00  0.93  0.00  0.03  0.00  0.00  0.00
  WS02006252WS02006251    1.00   0.24  0.00  0.00  0.00  0.00  0.76  0.00  0.00  0.00
  WS02006251WS02006249    1.00   0.00  0.00  0.00  1.00  0.00  0.00  0.00  0.65  0.00
  WS02006249WS02006248    1.00   0.00  0.01  0.00  0.49  0.00  0.50  0.00  0.00  0.00
  WS02006248WS02006247    1.00   0.01  0.00  0.00  0.97  0.00  0.00  0.02  0.62  0.00
  WS02006247WS02006245    1.00   0.01  0.00  0.00  0.88  0.00  0.00  0.11  0.00  0.00
  WS02006245WS02006243    1.00   0.01  0.00  0.00  0.74  0.00  0.00  0.24  0.04  0.00
  WS02006243WS02006242    1.00   0.02  0.00  0.00  0.95  0.00  0.00  0.03  0.68  0.00
  WS02006242WS02006240    1.00   0.02  0.02  0.00  0.93  0.00  0.03  0.00  0.00  0.00
  WS02006240WS02006239    1.00   0.04  0.00  0.00  0.77  0.00  0.00  0.19  0.03  0.00
  WS02006239WS02006238    1.00   0.04  0.00  0.00  0.96  0.00  0.00  0.00  0.13  0.00
  WS02006238WS02006235    1.00   0.04  0.00  0.00  0.96  0.00  0.00  0.00  0.00  0.00
  WS02006235WS02006234    1.00   0.04  0.00  0.00  0.81  0.00  0.15  0.00  0.00  0.00
  WS02006234WS02006232    1.00   0.04  0.00  0.00  0.96  0.00  0.00  0.00  0.10  0.00
  WS02006232WS02006231    1.00   0.04  0.00  0.00  0.95  0.00  0.00  0.00  0.00  0.00
  WS02006231WS02006230    1.00   0.04  0.00  0.00  0.00  0.00  0.96  0.00  0.00  0.00
  WS02006230WS02006229    1.00   0.00  0.00  0.00  0.99  0.00  0.00  0.01  0.00  0.00
  WS02006228WS02006109    1.00   0.00  0.00  0.00  1.00  0.00  0.00  0.00  0.00  0.00
  WS02006116WS02004401    1.00   0.04  0.00  0.00  0.96  0.00  0.00  0.00  0.00  0.00
  WS02006115WS02006116    1.00   0.04  0.00  0.00  0.91  0.00  0.00  0.05  0.00  0.00
  WS02006113WS02006111    1.00   0.02  0.00  0.00  0.01  0.96  0.00  0.00  0.08  0.00
  WS02006112WS02006115    1.00   0.03  0.01  0.00  0.95  0.00  0.00  0.00  0.00  0.00
  WS02006111WS02006112    1.00   0.03  0.00  0.00  0.97  0.00  0.00  0.00  0.92  0.00
  WS02006110WS02006113    1.00   0.00  0.02  0.00  0.98  0.00  0.00  0.00  0.00  0.00
  WS02006109WS02006110    1.00   0.00  0.00  0.00  0.99  0.00  0.00  0.00  0.00  0.00
  WS02004411WS02004412    1.00   0.10  0.00  0.00  0.90  0.00  0.00  0.00  0.00  0.00
  WS02004401WS02004402    1.00   0.04  0.00  0.00  0.96  0.00  0.00  0.00  0.00  0.00
  WS02004413WS02003067    1.00   0.10  0.01  0.00  0.00  0.00  0.89  0.00  0.00  0.00
  WS02004412WS02004413    1.00   0.10  0.00  0.00  0.90  0.00  0.00  0.00  0.01  0.00
  WS02004410WS02004411    1.00   0.10  0.00  0.00  0.90  0.00  0.00  0.00  0.00  0.00
  WS02004409WS02004410    1.00   0.10  0.00  0.00  0.90  0.00  0.00  0.00  0.00  0.00
  WS02004407WS02004409    1.00   0.10  0.00  0.00  0.90  0.00  0.00  0.00  0.84  0.00
  WS02004406WS02004407    1.00   0.00  0.10  0.00  0.90  0.00  0.00  0.00  0.00  0.00
  WS02004405WS02004406    1.00   0.00  0.00  0.00  1.00  0.00  0.00  0.00  0.04  0.00
  WS02004404WS02004405    1.00   0.00  0.00  0.00  1.00  0.00  0.00  0.00  0.00  0.00
  WS02004403WS02004404    1.00   0.00  0.05  0.00  0.95  0.00  0.00  0.00  0.02  0.00
  WS02004402WS02004403    1.00   0.04  0.00  0.00  0.96  0.00  0.00  0.00  0.00  0.00
  WS02004139WS02001211    1.00   0.00  0.00  0.00  1.00  0.00  0.00  0.00  0.00  0.00
  WS02004138WS02004139    1.00   0.01  0.01  0.00  0.98  0.01  0.00  0.00  0.98  0.00
  WS02003067WS02003066    1.00   0.11  0.00  0.00  0.89  0.00  0.00  0.00  0.00  0.00
  WS02001213WS02003059    1.00   0.00  0.00  0.00  1.00  0.00  0.00  0.00  0.00  0.00
  WS02001212WS02001213    1.00   0.01  0.00  0.00  0.00  0.00  0.99  0.00  0.00  0.00
  WS02001211WS02001212    1.00   0.00  0.01  0.00  0.99  0.00  0.00  0.00  0.00  0.00
  WS02003072WS02003073    1.00   0.00  0.00  0.00  0.00  0.00  0.00  1.00  0.00  0.00
  WS02003069WS02003072    1.00   0.00  0.00  0.00  1.00  0.00  0.00  0.00  0.98  0.00
  WS02003060WS02003069    1.00   0.00  0.00  0.00  0.98  0.02  0.00  0.00  0.73  0.00
  WS02003059WS02003060    1.00   0.00  0.00  0.00  1.00  0.00  0.00  0.00  0.04  0.00
  HS02004901HS02004770    1.00   0.08  0.01  0.00  0.91  0.00  0.00  0.00  0.04  0.00
  HS02004876HS02004881    1.00   0.01  0.00  0.00  0.99  0.00  0.00  0.00  0.00  0.00
  HS02004870HS02004876    1.00   0.00  0.00  0.00  1.00  0.00  0.00  0.00  0.95  0.00
  HS02004842HS02004848    1.00   0.00  0.10  0.00  0.90  0.00  0.00  0.00  0.85  0.00
  HS02004837HS02004842    1.00   0.00  0.00  0.00  1.00  0.00  0.00  0.00  0.11  0.00
  HS02004830HS02004837    1.00   0.00  0.00  0.00  1.00  0.00  0.00  0.00  0.99  0.00
  HS02004824HS02004830    1.00   0.00  0.00  0.00  1.00  0.00  0.00  0.00  0.00  0.00
  HS02004817HS02004824    1.00   0.00  0.00  0.00  1.00  0.00  0.00  0.00  1.00  0.00
  HS02004770HS02004777    1.00   0.00  0.09  0.00  0.91  0.00  0.00  0.00  0.08  0.00
  HS02004799HS02004480    1.00   0.00  0.01  0.00  0.88  0.00  0.11  0.00  0.00  0.00
  HS02004792HS02004799    1.00   0.00  0.00  0.00  1.00  0.00  0.00  0.00  0.98  0.00
  HS02004788HS02004792    1.00   0.00  0.00  0.00  1.00  0.00  0.00  0.00  0.98  0.00
  HS02004785HS02004788    1.00   0.00  0.00  0.00  1.00  0.00  0.00  0.00  0.00  0.00
  HS02004777HS02004785    1.00   0.00  0.00  0.00  1.00  0.00  0.00  0.00  0.24  0.00
  HS02004480HS02004478    1.00   0.11  0.00  0.00  0.84  0.00  0.00  0.05  0.00  0.00
  HS02004479HS02004480    1.00   0.01  0.00  0.00  0.99  0.00  0.00  0.00  0.17  0.00
  HS02004862HS02004870    1.00   0.00  0.00  0.00  1.00  0.00  0.00  0.00  0.07  0.00
  HS02004848HS02004852    1.00   0.10  0.00  0.00  0.90  0.00  0.00  0.00  0.63  0.00
  HS02004856HS02004862    1.00   0.00  0.16  0.00  0.84  0.00  0.00  0.00  0.69  0.00
  HS02004852HS02004856    1.00   0.09  0.03  0.00  0.89  0.00  0.00  0.00  0.80  0.00
  HS02004802HS02004478    1.00   0.09  0.02  0.00  0.89  0.00  0.00  0.00  0.00  0.00
  HS02004478WS02006287    1.00   0.11  0.00  0.00  0.89  0.00  0.00  0.00  0.81  0.00
  HS02004817HS02004807    1.00   0.00  0.09  0.00  0.91  0.00  0.00  0.00  0.00  0.00
  HS02004807HS02004802    1.00   0.09  0.00  0.00  0.90  0.00  0.00  0.01  0.01  0.00
  YS02001759YS02001757    1.00   0.00  0.00  0.00  1.00  0.00  0.00  0.00  0.17  0.00
  YS02001762YS02001759    1.00   0.00  0.00  0.00  1.00  0.00  0.00  0.00  0.06  0.00
  YS02001765YS02001762    1.00   0.00  0.00  0.00  1.00  0.00  0.00  0.00  0.25  0.00
  YS02001770YS02001767    1.00   0.00  0.00  0.00  1.00  0.00  0.00  0.00  0.00  0.00
  YS02001774YS02001770    1.00   0.00  0.12  0.00  0.88  0.00  0.00  0.00  0.07  0.00
  YS02001779YS02001774    1.00   0.00  0.00  0.00  1.00  0.00  0.00  0.00  0.33  0.00
  YS02001649YS02001757    1.00   0.00  0.00  0.00  1.00  0.00  0.00  0.00  0.20  0.00
  YS02001767YS02001765    1.00   0.00  0.00  0.00  1.00  0.00  0.00  0.00  0.01  0.00
  YS02006561YS02001783    1.00   0.16  0.00  0.00  0.00  0.84  0.00  0.00  0.69  0.00
  YS02001783YS02001784    1.00   0.00  0.16  0.00  0.84  0.00  0.00  0.00  0.70  0.00
  YS02001784YS02001785    1.00   0.00  0.00  0.00  1.00  0.00  0.00  0.00  0.30  0.00
  YS02001788YS02001790    1.00   0.00  0.00  0.00  0.17  0.83  0.00  0.00  1.00  0.00
  YS02001790YS02001791    1.00   0.00  0.00  0.00  0.01  0.99  0.00  0.00  0.00  0.00
  YS02001791YS02001793    1.00   0.00  0.00  0.00  0.00  1.00  0.00  0.00  0.00  0.00
  YS02001910YS02001907    1.00   0.00  0.00  0.00  0.99  0.00  0.00  0.01  0.13  0.00
  YS02001786YS02001788    1.00   0.00  0.00  0.00  0.90  0.10  0.00  0.00  0.00  0.00
  YS02001915YS02001910    1.00   0.00  0.00  0.00  1.00  0.00  0.00  0.00  0.28  0.00
  YS02001918YS02001915    1.00   0.00  0.00  0.00  0.99  0.01  0.00  0.00  0.78  0.00
  YS02001923YS02001920    1.00   0.00  0.00  0.00  1.00  0.00  0.00  0.00  1.00  0.00
  YS02001926YS02001923    1.00   0.00  0.03  0.00  0.00  0.00  0.97  0.00  0.00  0.00
  YS02001929YS02001926    1.00   0.00  0.09  0.00  0.91  0.00  0.00  0.00  0.86  0.00
  YS02001920YS02001918    1.00   0.00  0.00  0.00  1.00  0.00  0.00  0.00  0.00  0.00
  YS02001629YS02163301    1.00   0.14  0.01  0.00  0.85  0.00  0.00  0.00  0.00  0.00
  YS02001619YS02001622    1.00   0.08  0.00  0.00  0.92  0.00  0.00  0.00  0.00  0.00
  YS02001622YS02001625    1.00   0.09  0.00  0.00  0.91  0.00  0.00  0.00  0.18  0.00
  YS02001625YS02001629    1.00   0.09  0.08  0.00  0.77  0.00  0.06  0.00  0.00  0.00
  YS02163301YS02001633    1.00   0.00  0.14  0.00  0.86  0.00  0.00  0.00  0.00  0.00
  YS02163601YS02164001    1.00   0.00  0.03  0.00  0.97  0.00  0.00  0.00  0.00  0.00
  YS02164001YS02001641    1.00   0.00  0.03  0.00  0.97  0.00  0.00  0.00  0.07  0.00
  YS02001641YS02001644    1.00   0.00  0.00  0.00  1.00  0.00  0.00  0.00  0.00  0.00
  YS02001647YS02001649    1.00   0.00  0.16  0.00  0.84  0.00  0.00  0.00  0.01  0.00
  YS02006553YS02006556    1.00   0.00  0.00  0.00  1.00  0.00  0.00  0.00  0.03  0.00
  YS02006556YS02006558    1.00   0.00  0.00  0.00  1.00  0.00  0.00  0.00  0.00  0.00
  YSB6556YSB1171          1.00   0.02  0.05  0.00  0.94  0.00  0.00  0.00  0.00  0.00
  YS02001907YS02006553    1.00   0.00  0.01  0.00  0.99  0.00  0.00  0.00  0.00  0.00
  YS02006558YS02006561    1.00   0.16  0.00  0.00  0.00  0.84  0.00  0.00  0.34  0.00
  YS02001633YS02163601    1.00   0.00  0.00  0.00  1.00  0.00  0.00  0.00  0.21  0.00
  YS02001644YS02001647    1.00   0.00  0.16  0.00  0.84  0.00  0.00  0.00  0.00  0.00
  YS02001745YS02001748    1.00   0.00  0.00  0.00  0.00  0.00  0.00  1.00  0.00  0.00
  YS02001748YS02001751    1.00   0.00  0.00  0.00  0.91  0.09  0.00  0.00  0.83  0.00
  YS02001751YS02001754    1.00   0.00  0.00  0.00  0.82  0.00  0.00  0.18  0.07  0.00
  YS02001754YS02001757    1.00   0.00  0.00  0.00  1.00  0.00  0.00  0.00  0.32  0.00
  YS02001882YS02001884    1.00   0.13  0.01  0.00  0.86  0.00  0.00  0.00  0.00  0.00
  YS02001884YS02001887    1.00   0.02  0.02  0.00  0.96  0.00  0.00  0.00  0.00  0.00
  YS02001890YS02001895    1.00   0.00  0.14  0.00  0.86  0.00  0.00  0.00  0.00  0.00
  YS02001895YS02001898    1.00   0.14  0.00  0.00  0.83  0.00  0.02  0.00  0.00  0.00
  YS02001898YS02001901    1.00   0.13  0.02  0.00  0.85  0.00  0.00  0.00  0.02  0.00
  YS02001901YS02001904    1.00   0.13  0.00  0.00  0.87  0.00  0.00  0.00  0.00  0.00
  YS02001904YS02001907    1.00   0.00  0.13  0.00  0.87  0.00  0.00  0.00  0.00  0.00
  YS02001887YS02001890    1.00   0.00  0.00  0.00  0.99  0.00  0.01  0.00  0.00  0.00
  YS02001652YS02001649    1.00   0.00  0.00  0.00  1.00  0.00  0.00  0.00  0.31  0.00
  YS02001655YS02001652    1.00   0.00  0.00  0.00  0.82  0.00  0.00  0.18  0.08  0.00
  YS02001658YS02001655    1.00   0.00  0.12  0.00  0.79  0.09  0.00  0.00  0.78  0.00
  YS02001661YS02001658    1.00   0.12  0.00  0.00  0.00  0.87  0.00  0.00  0.73  0.00
  YS02001664YS02001661    1.00   0.08  0.00  0.00  0.92  0.00  0.00  0.00  0.86  0.00
  YSB1154YSB6556          1.00   0.07  0.00  0.00  0.93  0.00  0.00  0.00  0.02  0.00
  YSB1174YSB1171          1.00   0.02  0.02  0.00  0.96  0.00  0.00  0.00  0.00  0.00
  YSB1171HS02004479       1.00   0.01  0.00  0.00  0.98  0.00  0.00  0.01  0.14  0.00
  HS02004881HS02006253    1.00   0.02  0.00  0.00  0.05  0.00  0.00  0.93  0.02  0.00
  YS02001793JiankangQianchi    1.00   0.00  0.00  0.00  0.70  0.30  0.00  0.00  0.73  0.00
  YS02001757CaochengTiaoxuchi    1.00   0.00  0.24  0.00  0.76  0.00  0.00  0.00  0.00  0.00
  WSF200WS02003060        1.00   0.00  0.11  0.00  0.66  0.22  0.00  0.00  0.76  0.00
  1                       1.00   0.00  0.00  0.00  0.00  1.00  0.00  0.00  0.25  0.00
  2                       1.00   1.00  0.00  0.00  0.00  0.00  0.00  0.00  0.00  0.00
  3                       1.00   0.83  0.00  0.00  0.00  0.17  0.00  0.00  0.35  0.00
  4                       1.00   1.00  0.00  0.00  0.00  0.00  0.00  0.00  0.00  0.00
  
  
  *************************
  Conduit Surcharge Summary
  *************************
  
  ----------------------------------------------------------------------------
                                                           Hours        Hours 
                         --------- Hours Full --------   Above Full   Capacity
  Conduit                Both Ends  Upstream  Dnstream   Normal Flow   Limited
  ----------------------------------------------------------------------------
  WS02006256WS02006235        1.34      1.34      6.04      0.73         0.01
  WS02006249WS02006248        0.01      0.01      0.01      0.02         0.01
  WS02006247WS02006245        0.01      0.01      0.01      0.25         0.01
  WS02006235WS02006234        0.01      0.01      0.01      1.25         0.01
  WS02006231WS02006230        0.01      0.01      0.01      1.93         0.01
  WS02006230WS02006229        0.01      0.01      0.01      3.38         0.01
  WS02006228WS02006109        0.01      0.01      0.01      0.09         0.01
  WS02004404WS02004405        0.01      0.01      0.01      1.38         0.01
  YS02001793JiankangQianchi        0.01      0.01      2.58      0.01         0.01
  
  
  ***************
  Pumping Summary
  ***************
  
  ---------------------------------------------------------------------------------------------------------
                                                  Min       Avg       Max     Total     Power    % Time Off
                        Percent   Number of      Flow      Flow      Flow    Volume     Usage    Pump Curve
  Pump                 Utilized   Start-Ups       LPS       LPS       LPS  10^6 ltr     Kw-hr    Low   High
  ---------------------------------------------------------------------------------------------------------
  CC-Pump-1               16.99           5      0.00     51.04    161.22     0.217      0.87    0.0  100.0
  CC-Pump-2               33.91          10      0.00     58.46    199.95     0.471      1.90    0.0  100.0
  JK-Pump-1               17.02           3      0.00     80.17    299.95     0.232      3.90    0.0    0.0
  JK-Pump-2               25.53           5      0.00    109.64    300.00     0.500      8.34    0.0    0.0
  XR-Pump-1               57.44           8      0.00     62.23     95.00     0.998      4.44    0.0    0.0
  XR-Pump-2               17.01           4      0.00     44.03     95.00     0.228      1.20    0.0    0.0
  XR-Pump-3                8.51           2      0.00     53.87     94.96     0.114      0.69    0.0    0.0
  XR-Pump-4               23.41           5      0.00     49.01     95.00     0.342      1.55    0.0    0.0
  

  Analysis begun on:  Wed Jan  5 23:40:47 2022
  Analysis ended on:  Wed Jan  5 23:40:48 2022
  Total elapsed time: 00:00:01