
  EPA STORM WATER MANAGEMENT MODEL - VERSION 5.1 (Build 5.3.0.dev0)
  --------------------------------------------------------------

  WARNING 04: minimum elevation drop used for Conduit WS02004404WS02004405
  WARNING 03: negative offset ignored for Link YS02001904YS02001907
  
  *********************************************************
  NOTE: The summary statistics displayed in this report are
  based on results found at every computational time step,  
  not just on results from each reporting time step.
  *********************************************************
  
  ****************
  Analysis Options
  ****************
  Flow Units ............... LPS
  Process Models:
    Rainfall/Runoff ........ YES
    RDII ................... NO
    Snowmelt ............... NO
    Groundwater ............ NO
    Flow Routing ........... YES
    Ponding Allowed ........ NO
    Water Quality .......... NO
  Infiltration Method ...... HORTON
  Flow Routing Method ...... DYNWAVE
  Surcharge Method ......... EXTRAN
  Starting Date ............ 08/28/2015 08:00:00
  Ending Date .............. 08/28/2015 15:50:00
  Antecedent Dry Days ...... 8.0
  Report Time Step ......... 00:01:00
  Wet Time Step ............ 00:01:00
  Dry Time Step ............ 00:01:00
  Routing Time Step ........ 5.00 sec
  Variable Time Step ....... YES
  Maximum Trials ........... 8
  Number of Threads ........ 4
  Head Tolerance ........... 0.001500 m
  
  
  **************************        Volume         Depth
  Runoff Quantity Continuity     hectare-m            mm
  **************************     ---------       -------
  Total Precipitation ......         1.913         4.188
  Evaporation Loss .........         0.000         0.000
  Infiltration Loss ........         0.472         1.033
  Surface Runoff ...........         0.641         1.403
  Final Storage ............         0.800         1.752
  Continuity Error (%) .....        -0.017
  
  
  **************************        Volume        Volume
  Flow Routing Continuity        hectare-m      10^6 ltr
  **************************     ---------     ---------
  Dry Weather Inflow .......         0.616         6.165
  Wet Weather Inflow .......         0.641         6.406
  Groundwater Inflow .......         0.000         0.000
  RDII Inflow ..............         0.000         0.000
  External Inflow ..........         0.102         1.024
  External Outflow .........         0.553         5.531
  Flooding Loss ............         0.522         5.223
  Evaporation Loss .........         0.000         0.000
  Exfiltration Loss ........         0.000         0.000
  Initial Stored Volume ....         0.076         0.761
  Final Stored Volume ......         0.363         3.631
  Continuity Error (%) .....        -0.212
  
  
  *************************
  Highest Continuity Errors
  *************************
  Node HS02004842 (36.85%)
  Node YS02001884 (31.02%)
  Node YS02001774 (16.30%)
  Node YSB1171 (10.57%)
  Node YS02001625 (9.18%)
  
  
  ***************************
  Time-Step Critical Elements
  ***************************
  Link WS02006252WS02006251 (54.46%)
  Link 3 (23.50%)
  Link WS02006280WS02006229 (10.22%)
  Link WS02006238WS02006235 (3.90%)
  Link WS02003066WSF200 (1.78%)
  
  
  ********************************
  Highest Flow Instability Indexes
  ********************************
  Link WS02006113WS02006111 (42)
  Link YS02001767YS02001765 (5)
  Link YS02001754YS02001757 (4)
  Link YS02001652YS02001649 (4)
  Link YS02001649YS02001757 (4)
  
  
  *************************
  Routing Time Step Summary
  *************************
  Minimum Time Step           :     0.50 sec
  Average Time Step           :     1.48 sec
  Maximum Time Step           :     5.00 sec
  Percent in Steady State     :    -0.00
  Average Iterations per Step :     2.08
  Percent Not Converging      :     0.33
  
  
  ***************************
  Subcatchment Runoff Summary
  ***************************
  
  ------------------------------------------------------------------------------------------------------------------------------
                            Total      Total      Total      Total     Imperv       Perv      Total       Total     Peak  Runoff
                           Precip      Runon       Evap      Infil     Runoff     Runoff     Runoff      Runoff   Runoff   Coeff
  Subcatchment                 mm         mm         mm         mm         mm         mm         mm    10^6 ltr      LPS
  ------------------------------------------------------------------------------------------------------------------------------
  sub0                       4.19       0.00       0.00       0.29       2.63       0.00       2.63        0.00     0.86   0.628
  sub1                       4.19       0.00       0.00       0.46       2.47       0.00       2.47        0.02     4.27   0.591
  sub2                       4.19       0.00       0.00       1.55       1.74       0.00       1.74        0.02     3.73   0.414
  sub3                       4.19       0.00       0.00       1.55       1.70       0.00       1.70        0.04     7.55   0.407
  sub4                       4.19       0.00       0.00       0.46       2.35       0.00       2.35        0.05     8.35   0.561
  sub5                       4.19       0.00       0.00       0.29       2.59       0.00       2.59        0.03     7.60   0.617
  sub7                       4.19       0.00       0.00       0.38       2.56       0.00       2.56        0.01     2.74   0.611
  sub8                       4.19       0.00       0.00       0.38       2.55       0.00       2.55        0.02     4.79   0.609
  sub9                       4.19       0.00       0.00       0.38       2.55       0.00       2.55        0.01     3.55   0.608
  sub10                      4.19       0.00       0.00       0.34       2.56       0.00       2.56        0.03     7.61   0.612
  sub11                      4.19       0.00       0.00       0.34       2.58       0.00       2.58        0.03     9.04   0.616
  sub12                      4.19       0.00       0.00       0.54       2.46       0.00       2.46        0.02     7.83   0.586
  sub14                      4.19       0.00       0.00       0.38       2.54       0.00       2.54        0.02     6.92   0.608
  sub15                      4.19       0.00       0.00       1.26       1.95       0.00       1.95        0.03     9.37   0.467
  sub16                      4.19       0.00       0.00       1.38       1.89       0.00       1.89        0.02     6.84   0.451
  sub17                      4.19       0.00       0.00       1.34       1.91       0.00       1.91        0.02     5.50   0.457
  sub22                      4.19       0.00       0.00       1.80       1.60       0.00       1.60        0.10    31.00   0.382
  sub23                      4.19       0.00       0.00       1.55       1.77       0.00       1.77        0.08    26.47   0.422
  sub60                      4.19       0.00       0.00       0.50       1.53       0.00       1.53        0.46    38.61   0.365
  sub61                      4.19       0.00       0.00       0.71       1.69       0.00       1.69        0.52    49.57   0.403
  sub62                      4.19       0.00       0.00       0.34       1.79       0.00       1.79        0.55    50.32   0.428
  sub63                      4.19       0.00       0.00       1.21       1.52       0.00       1.52        0.46    46.71   0.363
  sub64                      4.19       0.00       0.00       0.63       1.46       0.00       1.46        0.44    36.61   0.348
  sub65                      4.19       0.00       0.00       0.54       1.47       0.00       1.47        0.45    37.08   0.351
  sub66                      4.19       0.00       0.00       1.21       1.28       0.00       1.28        0.39    33.80   0.307
  sub67                      4.19       0.00       0.00       0.34       2.02       0.00       2.02        0.62    66.03   0.483
  sub68                      4.19       0.00       0.00       0.59       1.81       0.00       1.81        0.56    55.14   0.432
  sub69                      4.19       0.00       0.00       0.63       2.01       0.00       2.01        0.47    56.20   0.479
  sub70                      4.19       2.05       0.00       2.12       2.30       0.00       2.30        0.53    40.91   0.370
  sub71                      4.19       0.00       0.00       0.34       1.69       0.00       1.69        0.40    34.83   0.405
  sub72                      4.19       0.00       0.00       0.29       1.12       0.00       1.12        0.23    15.77   0.268
  sub73                      4.19       2.24       0.00       2.19       2.24       0.00       2.24        0.53    34.82   0.348
  sub74                      4.19       0.00       0.00       3.14       0.61       0.00       0.61        0.24    31.66   0.146
  
  
  ******************
  Node Depth Summary
  ******************
  
  ---------------------------------------------------------------------------------
                                 Average  Maximum  Maximum  Time of Max    Reported
                                   Depth    Depth      HGL   Occurrence   Max Depth
  Node                 Type       Meters   Meters   Meters  days hr:min      Meters
  ---------------------------------------------------------------------------------
  WS02001211           JUNCTION     0.43     0.61     5.45     0  04:10        0.61
  WS02001212           JUNCTION     0.19     0.34     5.40     0  04:10        0.34
  WS02001213           JUNCTION     0.40     0.52     5.28     0  04:11        0.52
  WS02003069           JUNCTION     0.24     0.33     4.91     0  04:34        0.33
  WS02003072           JUNCTION     0.31     0.40     4.77     0  04:34        0.40
  WS02003073           JUNCTION     0.17     0.23     4.30     0  04:35        0.23
  WS02003060           JUNCTION     0.22     0.30     5.23     0  04:33        0.30
  WS02003066           JUNCTION     0.16     0.24     5.79     0  04:34        0.24
  WS02003059           JUNCTION     0.47     0.57     5.26     0  04:11        0.57
  WS02003067           JUNCTION     0.42     0.59     5.91     0  04:33        0.59
  WS02004401           JUNCTION     0.48     0.67     6.67     0  04:29        0.67
  WS02004402           JUNCTION     0.52     0.70     6.66     0  04:29        0.70
  WS02004403           JUNCTION     0.54     0.73     6.66     0  04:29        0.73
  WS02004404           JUNCTION     0.62     0.80     6.65     0  04:29        0.80
  WS02004406           JUNCTION     0.63     0.81     6.64     0  04:29        0.81
  WS02004409           JUNCTION     0.29     0.48     6.25     0  04:32        0.48
  WS02004410           JUNCTION     0.32     0.50     6.22     0  04:32        0.50
  WS02004411           JUNCTION     0.34     0.52     6.20     0  04:33        0.52
  WS02004412           JUNCTION     0.36     0.54     6.18     0  04:33        0.54
  WS02004413           JUNCTION     0.52     0.71     6.18     0  04:33        0.71
  WS02004405           JUNCTION     0.62     0.80     6.65     0  04:29        0.80
  WS02006109           JUNCTION     0.54     0.76     7.38     0  04:24        0.76
  WS02006110           JUNCTION     0.55     0.76     7.34     0  04:24        0.76
  WS02006111           JUNCTION     0.14     0.22     6.93     0  04:25        0.22
  WS02006112           JUNCTION     0.62     0.84     6.72     0  04:28        0.84
  WS02006113           JUNCTION     0.21     0.35     7.24     0  04:24        0.35
  WS02006115           JUNCTION     0.37     0.55     6.69     0  04:28        0.55
  WS02006116           JUNCTION     0.45     0.64     6.68     0  04:29        0.64
  WS02006230           JUNCTION     0.45     0.71     7.46     0  04:23        0.71
  WS02006231           JUNCTION     0.28     0.49     7.61     0  06:04        0.49
  WS02006232           JUNCTION     0.39     0.64     7.67     0  06:04        0.63
  WS02006234           JUNCTION     0.29     0.55     7.71     0  06:04        0.55
  WS02006235           JUNCTION     0.32     0.58     7.75     0  06:04        0.58
  WS02006238           JUNCTION     0.35     0.62     7.76     0  06:03        0.61
  WS02006240           JUNCTION     0.25     0.55     7.85     0  06:03        0.55
  WS02006242           JUNCTION     0.30     0.64     7.90     0  06:02        0.63
  WS02006243           JUNCTION     0.20     0.53     7.95     0  06:02        0.53
  WS02006245           JUNCTION     0.20     0.53     8.01     0  06:01        0.53
  WS02006247           JUNCTION     0.22     0.56     8.06     0  06:01        0.56
  WS02006248           JUNCTION     0.18     0.51     8.10     0  06:01        0.51
  WS02006249           JUNCTION     0.22     0.55     8.15     0  06:01        0.55
  WS02006239           JUNCTION     0.29     0.59     7.80     0  06:03        0.59
  WS02006251           JUNCTION     0.21     0.58     8.25     0  06:00        0.57
  WS02006252           JUNCTION     0.19     0.58     8.83     0  06:00        0.58
  WS02006253           JUNCTION     0.23     0.61     8.25     0  06:00        0.60
  WS02006256           JUNCTION     0.70     1.15     8.09     0  00:00        1.11
  WS02004138           JUNCTION     0.06     0.14     7.39     0  04:03        0.14
  WS02004407           JUNCTION     0.13     0.22     6.54     0  04:29        0.22
  WS02006228           JUNCTION     0.52     0.75     7.40     0  04:24        0.75
  WS02006229           JUNCTION     0.48     0.72     7.41     0  04:24        0.72
  WS02006280           JUNCTION     0.04     0.11     8.38     0  02:22        0.11
  WS02006284           JUNCTION     0.32     0.44     8.83     0  02:22        0.44
  WS02006287           JUNCTION     0.06     0.16     9.12     0  02:22        0.16
  WSF200               JUNCTION     0.12     0.21     5.44     0  04:33        0.21
  HS02004901           JUNCTION     0.09     0.19    10.01     0  02:20        0.19
  HS02004881           JUNCTION     0.00     0.02     9.05     0  02:21        0.02
  HS02004876           JUNCTION     0.03     0.09     9.12     0  02:21        0.09
  HS02004870           JUNCTION     0.01     0.03     9.32     0  02:22        0.03
  HS02004862           JUNCTION     0.01     0.03     9.42     0  02:23        0.03
  HS02004856           JUNCTION     0.07     0.09     9.52     0  02:22        0.09
  HS02004852           JUNCTION     0.00     0.02     9.53     0  02:23        0.02
  HS02004848           JUNCTION     0.00     0.02     9.62     0  02:20        0.02
  HS02004842           JUNCTION     0.32     0.35     9.62     0  02:19        0.35
  HS02004837           JUNCTION     0.02     0.04     9.62     0  02:20        0.04
  HS02004830           JUNCTION     0.03     0.05     9.52     0  02:20        0.05
  HS02004824           JUNCTION     0.02     0.03     9.43     0  02:23        0.03
  HS02004817           JUNCTION     0.40     0.49     9.34     0  02:22        0.49
  HS02004807           JUNCTION     0.10     0.16     9.33     0  02:22        0.16
  HS02004802           JUNCTION     0.13     0.20     9.33     0  02:22        0.20
  HS02004799           JUNCTION     0.08     0.20     9.41     0  02:21        0.20
  HS02004792           JUNCTION     0.02     0.07     9.59     0  02:20        0.07
  HS02004788           JUNCTION     0.01     0.05     9.95     0  02:21        0.05
  HS02004785           JUNCTION     0.02     0.10    10.00     0  02:21        0.10
  HS02004777           JUNCTION     0.12     0.21    10.01     0  02:21        0.21
  HS02004770           JUNCTION     0.09     0.18    10.01     0  02:21        0.18
  HS02004480           JUNCTION     0.05     0.15     9.39     0  02:21        0.15
  HS02004479           JUNCTION     0.08     0.19     9.39     0  02:21        0.19
  HS02004478           JUNCTION     0.04     0.09     9.32     0  02:22        0.09
  YS02001745           JUNCTION     0.06     0.09     7.60     0  03:01        0.09
  YS02001748           JUNCTION     0.28     0.43     7.51     0  05:52        0.43
  YS02001751           JUNCTION     0.45     0.63     7.51     0  05:52        0.63
  YS02001754           JUNCTION     0.68     0.90     7.51     0  05:54        0.90
  YS02001762           JUNCTION     0.87     1.11     7.51     0  05:54        1.11
  YS02001765           JUNCTION     0.82     1.06     7.51     0  05:54        1.06
  YS02001767           JUNCTION     0.79     1.02     7.51     0  05:54        1.02
  YS02001770           JUNCTION     0.78     1.01     7.51     0  05:54        1.01
  YS02001774           JUNCTION     0.85     1.08     7.50     0  05:54        1.08
  YS02001779           JUNCTION     0.61     0.83     7.51     0  05:54        0.82
  YS02001882           JUNCTION     0.21     0.33     7.04     0  02:54        0.33
  YS02001884           JUNCTION     0.30     0.43     7.04     0  02:55        0.43
  YS02001759           JUNCTION     0.90     1.15     7.51     0  05:54        1.14
  YS02001887           JUNCTION     0.37     0.51     7.04     0  02:54        0.51
  YS02001890           JUNCTION     0.40     0.54     7.04     0  02:54        0.54
  YS02001898           JUNCTION     0.18     0.29     7.03     0  02:56        0.29
  YS02001901           JUNCTION     0.29     0.42     7.03     0  02:56        0.42
  YS02001904           JUNCTION     0.27     0.40     7.03     0  02:55        0.40
  YS02001907           JUNCTION     0.59     0.74     7.03     0  02:56        0.74
  YS02001910           JUNCTION     0.39     0.52     7.03     0  02:56        0.52
  YS02001915           JUNCTION     0.20     0.31     7.03     0  02:57        0.31
  YS02001918           JUNCTION     0.06     0.07     7.14     0  03:04        0.07
  YS02001619           JUNCTION     0.41     0.58     7.51     0  05:54        0.58
  YS02001629           JUNCTION     0.73     0.96     7.51     0  05:55        0.95
  YS02001641           JUNCTION     0.83     1.08     7.51     0  05:51        1.07
  YS02001644           JUNCTION     0.84     1.08     7.51     0  05:51        1.08
  YS02001652           JUNCTION     0.69     0.92     7.51     0  05:53        0.91
  YS02001655           JUNCTION     0.47     0.67     7.52     0  05:53        0.65
  YS02001920           JUNCTION     0.14     0.17     7.17     0  03:03        0.17
  YS02001923           JUNCTION     0.04     0.06     7.32     0  03:02        0.06
  YS02001926           JUNCTION     0.11     0.13     7.58     0  03:02        0.13
  YS02001929           JUNCTION     0.05     0.06     7.76     0  03:01        0.06
  YS02001658           JUNCTION     0.23     0.37     7.51     0  05:52        0.37
  YS02001661           JUNCTION     0.12     0.16     7.57     0  02:47        0.16
  YS02001664           JUNCTION     0.05     0.08     8.01     0  02:46        0.08
  YS02001622           JUNCTION     0.43     0.60     7.51     0  05:54        0.60
  YS02001633           JUNCTION     0.82     1.05     7.51     0  05:55        1.05
  YS02001649           JUNCTION     0.87     1.11     7.50     0  05:53        1.11
  YS02001757           JUNCTION     1.00     1.25     7.51     0  05:54        1.25
  YS02001895           JUNCTION     0.18     0.29     7.04     0  02:55        0.29
  YS02001625           JUNCTION     0.69     0.91     7.51     0  05:55        0.90
  YS02163301           JUNCTION     0.76     0.99     7.51     0  05:55        0.99
  YS02163601           JUNCTION     0.87     1.11     7.51     0  05:51        1.11
  YS02164001           JUNCTION     0.82     1.06     7.51     0  05:51        1.05
  YS02001647           JUNCTION     0.68     0.90     7.51     0  05:51        0.90
  YSB1154              JUNCTION     0.22     0.33     9.39     0  02:21        0.33
  YSB6556              JUNCTION     0.11     0.22     9.39     0  02:21        0.22
  YSB1174              JUNCTION     0.17     0.28     9.39     0  02:21        0.28
  YSB1171              JUNCTION     0.36     0.49     9.39     0  02:21        0.49
  YS02006553           JUNCTION     0.60     0.74     7.03     0  02:56        0.74
  YS02006561           JUNCTION     0.10     0.16     6.82     0  02:56        0.16
  YS02006556           JUNCTION     0.57     0.71     7.03     0  02:55        0.71
  YS02006558           JUNCTION     0.61     0.76     7.03     0  02:55        0.76
  YS02001783           JUNCTION     0.21     0.54     6.69     0  03:09        0.54
  YS02001784           JUNCTION     0.25     0.61     6.68     0  03:10        0.60
  YS02001786           JUNCTION     0.24     0.63     6.66     0  03:10        0.62
  YS02001788           JUNCTION     0.22     0.67     6.65     0  03:10        0.67
  YS02001790           JUNCTION     0.33     1.07     6.72     0  03:06        0.99
  YS02001791           JUNCTION     0.35     1.15     6.62     0  03:10        1.15
  YS02001793           JUNCTION     0.59     1.78     6.61     0  03:08        1.77
  WS02004139           JUNCTION     0.36     0.55     5.46     0  04:10        0.55
  WSC                  OUTFALL      0.17     0.23     0.90     0  04:35        0.23
  3                    OUTFALL      0.03     0.13     6.13     0  00:00        0.11
  4                    OUTFALL      0.00     0.05     7.05     0  06:01        0.05
  5                    OUTFALL      0.00     0.00     5.00     0  00:00        0.00
  JK-storage           STORAGE      3.33     5.80     6.60     0  03:08        5.80
  CC-storage           STORAGE      0.33     0.50     7.50     0  07:50        0.50
  XR-storage           STORAGE      7.61     7.72     5.72     0  00:38        7.72
  
  
  *******************
  Node Inflow Summary
  *******************
  
  -------------------------------------------------------------------------------------------------
                                  Maximum  Maximum                  Lateral       Total        Flow
                                  Lateral    Total  Time of Max      Inflow      Inflow     Balance
                                   Inflow   Inflow   Occurrence      Volume      Volume       Error
  Node                 Type           LPS      LPS  days hr:min    10^6 ltr    10^6 ltr     Percent
  -------------------------------------------------------------------------------------------------
  WS02001211           JUNCTION      7.35   197.16     0  04:10       0.207        1.64       0.912
  WS02001212           JUNCTION      0.00   196.71     0  04:10           0        1.62       0.401
  WS02001213           JUNCTION      0.00   196.56     0  04:11           0        1.62       0.626
  WS02003069           JUNCTION      0.32   337.97     0  04:33     0.00902        4.94       0.222
  WS02003072           JUNCTION      0.00   337.19     0  04:34           0        4.93       0.330
  WS02003073           JUNCTION      1.82   338.74     0  04:34      0.0514        4.97       0.342
  WS02003060           JUNCTION     16.53   337.81     0  04:32       0.466        4.96       0.208
  WS02003066           JUNCTION      0.00   296.65     0  04:33           0        2.91       0.085
  WS02003059           JUNCTION      0.00   196.33     0  04:11           0        1.62       1.401
  WS02003067           JUNCTION      0.00   296.62     0  04:33           0        2.91       0.204
  WS02004401           JUNCTION      0.00   314.15     0  04:26           0        3.05       0.422
  WS02004402           JUNCTION      0.00   310.81     0  04:28           0        3.04       0.421
  WS02004403           JUNCTION      0.00   309.26     0  04:28           0        3.03       0.402
  WS02004404           JUNCTION      0.16   308.57     0  04:28     0.00457        3.02       0.325
  WS02004406           JUNCTION      0.00   307.87     0  04:29           0           3       0.807
  WS02004409           JUNCTION      0.00   307.38     0  04:29           0        2.97       0.228
  WS02004410           JUNCTION      0.00   303.52     0  04:30           0        2.96       0.297
  WS02004411           JUNCTION      0.00   300.34     0  04:31           0        2.95       0.337
  WS02004412           JUNCTION      0.00   298.28     0  04:32           0        2.94       0.406
  WS02004413           JUNCTION      0.00   297.13     0  04:33           0        2.93       0.658
  WS02004405           JUNCTION      0.04   308.27     0  04:28     0.00107        3.01       0.489
  WS02006109           JUNCTION      1.23   329.97     0  04:24      0.0347         3.1       0.235
  WS02006110           JUNCTION      0.00   329.87     0  04:24           0        3.09       0.311
  WS02006111           JUNCTION      0.00   334.68     0  04:24           0        3.08       0.044
  WS02006112           JUNCTION      5.50   329.99     0  04:25      0.0164        3.09       0.624
  WS02006113           JUNCTION      0.00   329.74     0  04:24           0        3.08       0.087
  WS02006115           JUNCTION      0.00   325.09     0  04:25           0        3.07       0.297
  WS02006116           JUNCTION      0.00   318.79     0  04:26           0        3.06       0.314
  WS02006230           JUNCTION     10.28   316.30     0  06:04        0.29        2.44       0.241
  WS02006231           JUNCTION      0.00   306.29     0  06:03           0        2.16       0.062
  WS02006232           JUNCTION      0.00   308.20     0  06:03           0        2.16       0.289
  WS02006234           JUNCTION      0.00   312.52     0  06:02           0        2.16      -0.218
  WS02006235           JUNCTION      0.00   316.68     0  06:02           0        2.23       0.345
  WS02006238           JUNCTION      0.00   316.29     0  06:02           0        1.43      -0.177
  WS02006240           JUNCTION      0.00   326.85     0  06:02           0        1.37       0.173
  WS02006242           JUNCTION      0.00   333.55     0  06:01           0        1.35       0.152
  WS02006243           JUNCTION      0.00   338.08     0  06:01           0        1.33      -0.354
  WS02006245           JUNCTION      0.00   342.64     0  06:01           0        1.34       0.738
  WS02006247           JUNCTION      0.00   347.15     0  06:00           0        1.34       0.093
  WS02006248           JUNCTION      0.00   351.35     0  06:00           0        1.33      -0.396
  WS02006249           JUNCTION      0.00   381.85     0  06:00           0        1.35       0.622
  WS02006239           JUNCTION      0.00   319.75     0  06:02           0        1.39      -0.637
  WS02006251           JUNCTION      0.08   399.79     0  06:00     0.00217        1.37      -0.083
  WS02006252           JUNCTION      0.00   399.94     0  06:00           0        1.25       0.020
  WS02006253           JUNCTION      0.86    27.26     0  05:51     0.00213       0.117       0.234
  WS02006256           JUNCTION      0.00   300.00     0  04:20           0        1.41       0.153
  WS02004138           JUNCTION      0.00   190.00     0  04:00           0        1.42      -0.081
  WS02004407           JUNCTION      0.00   307.51     0  04:29           0        2.97       0.096
  WS02006228           JUNCTION      0.00   328.79     0  04:23           0        3.07       0.226
  WS02006229           JUNCTION      0.00   328.90     0  04:23           0        3.08       0.307
  WS02006280           JUNCTION      0.00   124.71     0  02:23           0       0.639       0.012
  WS02006284           JUNCTION      0.10   124.71     0  02:22      0.0027        0.64       0.175
  WS02006287           JUNCTION      0.00   124.63     0  02:22           0       0.638       0.108
  WSF200               JUNCTION      0.00   296.63     0  04:34           0         2.9       0.067
  HS02004901           JUNCTION      6.84     6.84     0  02:13      0.0198      0.0199       9.676
  HS02004881           JUNCTION      2.74    22.41     0  02:21     0.00861      0.0892       0.093
  HS02004876           JUNCTION      4.27    19.93     0  02:21      0.0164      0.0811       0.642
  HS02004870           JUNCTION      4.79    15.78     0  02:21      0.0163      0.0648       0.163
  HS02004862           JUNCTION      3.93    11.36     0  02:21      0.0218      0.0487       0.344
  HS02004856           JUNCTION      3.55     7.48     0  02:21      0.0122      0.0283       5.351
  HS02004852           JUNCTION      0.00     4.19     0  02:21           0      0.0161       0.295
  HS02004848           JUNCTION      7.55     7.55     0  02:23      0.0383      0.0383       0.111
  HS02004842           JUNCTION      0.00     4.47     0  00:03           0      0.0353      58.364
  HS02004837           JUNCTION     13.96    17.18     0  02:19       0.207        0.23       0.356
  HS02004830           JUNCTION      0.15    17.32     0  02:20     0.00423        0.22       0.563
  HS02004824           JUNCTION      8.40    25.62     0  02:23      0.0504       0.269       0.201
  HS02004817           JUNCTION      0.60    26.22     0  02:23      0.0169       0.285       6.195
  HS02004807           JUNCTION      9.04    34.38     0  02:22        0.03       0.299       1.434
  HS02004802           JUNCTION      0.00    34.42     0  02:24           0       0.295       1.400
  HS02004799           JUNCTION      6.92    76.88     0  02:19      0.0242       0.312       0.724
  HS02004792           JUNCTION     31.28    70.22     0  02:19       0.109       0.288       0.146
  HS02004788           JUNCTION     11.04    40.96     0  02:21      0.0807        0.18       0.219
  HS02004785           JUNCTION      0.15    30.43     0  02:20     0.00423       0.102       0.473
  HS02004777           JUNCTION      0.03    30.88     0  02:18    0.000846       0.102       5.353
  HS02004770           JUNCTION     26.47    32.12     0  02:16      0.0844       0.102       3.116
  HS02004480           JUNCTION      0.00    90.48     0  02:20           0        0.36       0.189
  HS02004479           JUNCTION      0.00    13.94     0  02:23           0      0.0603       1.221
  HS02004478           JUNCTION      0.00   124.63     0  02:22           0       0.639       0.103
  YS02001745           JUNCTION     38.62    38.62     0  03:01       0.463       0.463       0.122
  YS02001748           JUNCTION      0.04    94.21     0  04:32     0.00127       0.552       1.430
  YS02001751           JUNCTION      0.01   117.38     0  04:12     0.00031       0.544       2.871
  YS02001754           JUNCTION      0.26    97.10     0  03:22     0.00733       0.515       4.449
  YS02001762           JUNCTION      0.00    66.41     0  03:29           0       0.481       4.587
  YS02001765           JUNCTION      0.00    71.24     0  03:25           0       0.483       5.269
  YS02001767           JUNCTION      0.54    60.54     0  02:33      0.0151       0.505       7.569
  YS02001770           JUNCTION     50.47    56.24     0  02:33       0.555       0.616       5.241
  YS02001774           JUNCTION      0.00    28.99     0  02:30           0       0.154      19.475
  YS02001779           JUNCTION      0.01    25.49     0  03:58    0.000141      0.0679      24.673
  YS02001882           JUNCTION      0.00     2.38     0  02:12           0     0.00344      71.344
  YS02001884           JUNCTION      0.00     7.37     0  02:07           0       0.014      44.960
  YS02001759           JUNCTION     49.61   117.78     0  03:30       0.521       0.968       2.427
  YS02001887           JUNCTION     66.48    66.48     0  02:44       0.637       0.643       1.034
  YS02001890           JUNCTION      0.00    66.11     0  02:47           0       0.625       1.174
  YS02001898           JUNCTION      0.00    65.82     0  02:50           0       0.614       0.291
  YS02001901           JUNCTION      0.00    65.86     0  02:50           0       0.614       0.813
  YS02001904           JUNCTION      0.00    65.57     0  02:51           0       0.614       0.759
  YS02001907           JUNCTION      0.00   118.57     0  02:57           0        1.31       1.644
  YS02001910           JUNCTION      0.00    53.68     0  03:01           0       0.704       1.362
  YS02001915           JUNCTION     34.85    53.37     0  03:01         0.4       0.707       0.553
  YS02001918           JUNCTION      0.00    18.67     0  03:03           0       0.308       0.268
  YS02001619           JUNCTION     33.80    33.80     0  02:59       0.393       0.394       1.853
  YS02001629           JUNCTION      0.00    49.60     0  04:58           0       0.345       6.232
  YS02001641           JUNCTION      0.00    72.51     0  03:25           0       0.695       3.084
  YS02001644           JUNCTION     36.65   101.52     0  03:04       0.444        1.11       2.386
  YS02001652           JUNCTION      0.00    66.72     0  04:15           0       0.504       4.399
  YS02001655           JUNCTION      0.15    95.36     0  04:16     0.00434        0.53       3.262
  YS02001920           JUNCTION      2.87    18.68     0  03:02      0.0809        0.31       0.552
  YS02001923           JUNCTION      0.04    15.81     0  03:02     0.00106       0.229       0.097
  YS02001926           JUNCTION      0.05    15.82     0  03:01     0.00147       0.229       0.706
  YS02001929           JUNCTION     15.77    15.77     0  03:01       0.228       0.228       0.092
  YS02001658           JUNCTION      0.00    74.18     0  04:38           0       0.533       1.439
  YS02001661           JUNCTION      0.00    46.71     0  02:46           0       0.459       0.140
  YS02001664           JUNCTION     46.71    46.71     0  02:46        0.46        0.46       0.032
  YS02001622           JUNCTION      0.00    37.62     0  04:12           0       0.387       5.494
  YS02001633           JUNCTION     37.28    77.64     0  02:38       0.458       0.751       4.428
  YS02001649           JUNCTION      0.00   168.44     0  03:27           0        1.53       2.484
  YS02001757           JUNCTION      0.00   330.00     0  03:21           0        2.83       3.313
  YS02001895           JUNCTION      0.00    65.90     0  02:49           0       0.618       0.513
  YS02001625           JUNCTION      0.00    50.39     0  04:54           0        0.38      10.114
  YS02163301           JUNCTION      0.00    39.98     0  02:38           0       0.318       7.960
  YS02163601           JUNCTION      0.11    75.96     0  02:38      0.0031       0.719       4.372
  YS02164001           JUNCTION      0.00    71.48     0  03:25           0       0.698       2.917
  YS02001647           JUNCTION      0.00   104.62     0  03:25           0        1.07       2.501
  YSB1154              JUNCTION      7.60     7.60     0  02:17      0.0293      0.0307       4.938
  YSB6556              JUNCTION      0.00     7.50     0  02:21           0      0.0317       4.079
  YSB1174              JUNCTION      7.83     7.83     0  02:12      0.0214      0.0225       6.061
  YSB1171              JUNCTION      0.00    13.96     0  02:20           0      0.0598      11.822
  YS02006553           JUNCTION      0.00   118.64     0  03:02           0         1.3       1.071
  YS02006561           JUNCTION      0.00   174.03     0  02:55           0        1.83       0.027
  YS02006556           JUNCTION      0.00   118.81     0  03:02           0         1.3       0.767
  YS02006558           JUNCTION     56.02   174.05     0  02:55        0.58        1.86       0.232
  YS02001783           JUNCTION      0.00   174.03     0  02:56           0        1.83       0.064
  YS02001784           JUNCTION      1.06   183.09     0  03:12      0.0299        1.86       0.113
  YS02001786           JUNCTION      0.06   199.44     0  03:11     0.00159        1.86       0.111
  YS02001788           JUNCTION      0.07   217.66     0  03:11       0.002        1.86       0.057
  YS02001790           JUNCTION      0.15   222.08     0  03:11     0.00437        1.86       0.031
  YS02001791           JUNCTION      0.00   230.99     0  04:20           0        1.86       0.017
  YS02001793           JUNCTION      0.00   248.58     0  02:57           0        1.87       0.012
  WS02004139           JUNCTION      0.32   190.32     0  04:03     0.00905        1.44       0.779
  WSC                  OUTFALL       0.00   338.21     0  04:35           0        4.95       0.000
  3                    OUTFALL       0.00   250.55     0  00:00           0       0.575       0.000
  4                    OUTFALL       0.00    28.91     0  06:01           0     0.00398       0.000
  5                    OUTFALL       0.00     0.00     0  00:00           0           0       0.000 ltr
  JK-storage           STORAGE       0.00   334.54     0  02:57           0        2.02      -1.123
  CC-storage           STORAGE       0.00   262.79     0  03:00           0        2.67       1.109
  XR-storage           STORAGE     263.35   263.35     0  02:52        6.41        7.01      -0.000
  
  
  **********************
  Node Surcharge Summary
  **********************
  
  Surcharging occurs when water rises above the top of the highest conduit.
  ---------------------------------------------------------------------
                                               Max. Height   Min. Depth
                                   Hours       Above Crown    Below Rim
  Node                 Type      Surcharged         Meters       Meters
  ---------------------------------------------------------------------
  WS02006252           JUNCTION        0.13          0.185        0.915
  YS02001762           JUNCTION        2.99          0.112        1.038
  YS02001765           JUNCTION        2.36          0.063        1.037
  YS02001767           JUNCTION        0.65          0.024        1.006
  YS02001774           JUNCTION        2.59          0.082        0.968
  YS02001759           JUNCTION        3.80          0.146        1.064
  YS02001641           JUNCTION        2.48          0.077        1.023
  YS02001644           JUNCTION        2.51          0.081        0.839
  YS02001633           JUNCTION        1.76          0.034        1.026
  YS02001649           JUNCTION        3.21          0.114        0.936
  YS02001757           JUNCTION        4.39          0.246        0.964
  YS02163601           JUNCTION        3.03          0.113        0.967
  YS02164001           JUNCTION        2.29          0.056        1.044
  YS02001790           JUNCTION        1.60          0.273        0.884
  YS02001791           JUNCTION        1.81          0.346        1.574
  YS02001793           JUNCTION        2.19          0.775        1.825
  
  
  *********************
  Node Flooding Summary
  *********************
  
  Flooding refers to all water that overflows a node, whether it ponds or not.
  --------------------------------------------------------------------------
                                                             Total   Maximum
                                 Maximum   Time of Max       Flood    Ponded
                        Hours       Rate    Occurrence      Volume     Depth
  Node                 Flooded       LPS   days hr:min    10^6 ltr    Meters
  --------------------------------------------------------------------------
  JK-storage              1.30    223.42      0  03:11       0.564     0.000
  XR-storage              7.20    263.35      0  02:52       4.659     0.000
  
  
  **********************
  Storage Volume Summary
  **********************
  
  --------------------------------------------------------------------------------------------------
                         Average     Avg  Evap Exfil       Maximum     Max    Time of Max    Maximum
                          Volume    Pcnt  Pcnt  Pcnt        Volume    Pcnt     Occurrence    Outflow
  Storage Unit           1000 m3    Full  Loss  Loss       1000 m3    Full    days hr:min        LPS
  --------------------------------------------------------------------------------------------------
  JK-storage               0.167      57     0     0         0.291     100       0  03:08     300.00
  CC-storage               0.908       6     0     0         1.391       9       0  07:50     399.94
  XR-storage               0.913      99     0     0         0.926     100       0  00:38     190.00
  
  
  ***********************
  Outfall Loading Summary
  ***********************
  
  -----------------------------------------------------------
                         Flow       Avg       Max       Total
                         Freq      Flow      Flow      Volume
  Outfall Node           Pcnt       LPS       LPS    10^6 ltr
  -----------------------------------------------------------
  WSC                   99.99    201.13    338.21       4.952
  3                     31.93    128.89    250.55       0.575
  4                      1.94     11.93     28.91       0.004
  5                      0.00      0.00      0.00       0.000
  -----------------------------------------------------------
  System                33.46    341.95    456.33       5.531
  
  
  ********************
  Link Flow Summary
  ********************
  
  -----------------------------------------------------------------------------
                                 Maximum  Time of Max   Maximum    Max/    Max/
                                  |Flow|   Occurrence   |Veloc|    Full    Full
  Link                 Type          LPS  days hr:min     m/sec    Flow   Depth
  -----------------------------------------------------------------------------
  WS02003066WSF200     CONDUIT    296.63     0  04:34      2.44    0.05    0.16
  WS02006287WS02006284 CONDUIT    124.62     0  02:22      1.36    0.06    0.17
  WS02006284WS02006280 CONDUIT    124.71     0  02:23      1.61    0.05    0.16
  WS02006280WS02006229 CONDUIT    124.72     0  02:23      2.57    0.03    0.11
  WS02006229WS02006228 CONDUIT    328.79     0  04:23      0.83    1.09    0.90
  WS02006256WS02006235 CONDUIT    166.25     0  00:01      2.58    1.76    1.00
  WS02006253WS02006251 CONDUIT     26.60     0  05:51      0.44    0.08    0.84
  WS02006252WS02006251 CONDUIT    399.71     0  06:00      3.18    1.47    1.00
  WS02006251WS02006249 CONDUIT    381.85     0  06:00      1.15    1.10    0.81
  WS02006249WS02006248 CONDUIT    351.35     0  06:00      1.16    1.92    0.75
  WS02006248WS02006247 CONDUIT    347.15     0  06:00      1.13    0.76    0.76
  WS02006247WS02006245 CONDUIT    342.64     0  06:01      1.10    2.72    0.77
  WS02006245WS02006243 CONDUIT    338.08     0  06:01      1.13    1.00    0.74
  WS02006243WS02006242 CONDUIT    333.55     0  06:01      1.02    0.71    0.81
  WS02006242WS02006240 CONDUIT    326.85     0  06:02      0.96    1.30    0.84
  WS02006240WS02006239 CONDUIT    319.75     0  06:02      1.01    1.01    0.79
  WS02006239WS02006238 CONDUIT    316.29     0  06:02      0.92    1.01    0.85
  WS02006238WS02006235 CONDUIT    315.93     0  06:02      1.25    0.71    0.86
  WS02006235WS02006234 CONDUIT    312.52     0  06:02      1.04    3.30    0.79
  WS02006234WS02006232 CONDUIT    308.20     0  06:03      1.13    0.62    0.85
  WS02006232WS02006231 CONDUIT    306.29     0  06:03      0.94    0.64    0.79
  WS02006231WS02006230 CONDUIT    306.02     0  06:04      1.29    4.64    0.59
  WS02006230WS02006229 CONDUIT    315.48     0  06:04      0.86    7.02    0.98
  WS02006228WS02006109 CONDUIT    328.74     0  04:24      0.75    1.44    0.93
  WS02006116WS02004401 CONDUIT    314.15     0  04:26      0.73    0.43    0.65
  WS02006115WS02006116 CONDUIT    318.79     0  04:26      0.80    0.41    0.57
  WS02006113WS02006111 CONDUIT    334.68     0  04:24      2.08    0.40    0.36
  WS02006112WS02006115 CONDUIT    325.09     0  04:25      0.61    0.19    0.69
  WS02006111WS02006112 CONDUIT    329.88     0  04:25      1.32    0.16    0.63
  WS02006110WS02006113 CONDUIT    329.74     0  04:24      0.89    0.30    0.69
  WS02006109WS02006110 CONDUIT    329.87     0  04:24      0.71    0.63    0.88
  WS02004411WS02004412 CONDUIT    298.28     0  04:32      0.71    0.42    0.53
  WS02004401WS02004402 CONDUIT    310.81     0  04:28      0.77    0.37    0.69
  WS02004413WS02003067 CONDUIT    296.62     0  04:33      0.81    0.13    0.48
  WS02004412WS02004413 CONDUIT    297.13     0  04:33      0.58    0.20    0.63
  WS02004410WS02004411 CONDUIT    300.34     0  04:31      0.76    0.41    0.51
  WS02004409WS02004410 CONDUIT    303.52     0  04:30      0.83    0.39    0.49
  WS02004407WS02004409 CONDUIT    307.38     0  04:29      1.31    0.11    0.35
  WS02004406WS02004407 CONDUIT    307.51     0  04:29      0.75    0.14    0.52
  WS02004405WS02004406 CONDUIT    307.87     0  04:29      0.66    0.61    0.81
  WS02004404WS02004405 CONDUIT    308.23     0  04:28      0.84    3.02    0.80
  WS02004403WS02004404 CONDUIT    308.40     0  04:28      0.74    0.22    0.77
  WS02004402WS02004403 CONDUIT    309.26     0  04:28      0.75    0.44    0.72
  WS02004139WS02001211 CONDUIT    189.81     0  04:10      0.41    0.24    0.44
  WS02004138WS02004139 CONDUIT    190.00     0  04:03      1.02    0.04    0.32
  WS02003067WS02003066 CONDUIT    296.65     0  04:33      0.86    0.10    0.34
  WS02001213WS02003059 CONDUIT    196.33     0  04:11      0.46    0.32    0.54
  WS02001212WS02001213 CONDUIT    196.56     0  04:11      1.03    0.30    0.29
  WS02001211WS02001212 CONDUIT    196.71     0  04:10      0.54    0.15    0.47
  WS02003072WS02003073 CONDUIT    336.92     0  04:34      1.21    0.73    0.29
  WS02003069WS02003072 CONDUIT    337.19     0  04:34      1.17    0.16    0.30
  WS02003060WS02003069 CONDUIT    337.65     0  04:33      1.45    0.13    0.26
  WS02003059WS02003060 CONDUIT    196.24     0  04:12      0.63    0.13    0.42
  HS02004901HS02004770 CONDUIT      6.02     0  02:18      0.03    0.02    0.26
  HS02004876HS02004881 CONDUIT     19.94     0  02:22      0.39    0.21    0.07
  HS02004870HS02004876 CONDUIT     15.76     0  02:22      0.27    0.01    0.08
  HS02004842HS02004848 CONDUIT      3.57     0  02:32      0.02    0.00    0.26
  HS02004837HS02004842 CONDUIT      4.47     0  00:03      0.41    0.00    0.28
  HS02004830HS02004837 CONDUIT     17.17     0  02:20      0.38    0.02    0.06
  HS02004824HS02004830 CONDUIT     17.32     0  02:21      0.43    0.02    0.06
  HS02004817HS02004824 CONDUIT     25.62     0  02:23      0.17    0.01    0.37
  HS02004770HS02004777 CONDUIT     30.85     0  02:18      0.16    0.06    0.28
  HS02004799HS02004480 CONDUIT     76.73     0  02:20      0.45    0.10    0.24
  HS02004792HS02004799 CONDUIT     70.18     0  02:20      0.52    0.04    0.19
  HS02004788HS02004792 CONDUIT     40.92     0  02:21      0.69    0.03    0.09
  HS02004785HS02004788 CONDUIT     30.32     0  02:21      0.40    0.23    0.11
  HS02004777HS02004785 CONDUIT     30.28     0  02:20      0.20    0.04    0.22
  HS02004480HS02004478 CONDUIT     90.46     0  02:21      0.77    0.38    0.17
  HS02004479HS02004480 CONDUIT     14.06     0  02:23      0.16    0.01    0.24
  HS02004862HS02004870 CONDUIT     11.32     0  02:23      0.37    0.01    0.04
  HS02004848HS02004852 CONDUIT      4.19     0  02:21      0.24    0.00    0.03
  HS02004856HS02004862 CONDUIT      7.45     0  02:22      0.27    0.01    0.04
  HS02004852HS02004856 CONDUIT      4.16     0  02:23      0.08    0.00    0.08
  HS02004802HS02004478 CONDUIT     34.58     0  02:25      0.23    0.03    0.21
  HS02004478WS02006287 CONDUIT    124.63     0  02:22      1.05    0.03    0.13
  HS02004817HS02004807 CONDUIT     26.43     0  02:26      0.08    0.02    0.47
  HS02004807HS02004802 CONDUIT     34.42     0  02:24      0.19    0.07    0.25
  YS02001759YS02001757 CONDUIT    107.90     0  02:59      0.15    0.08    1.00
  YS02001762YS02001759 CONDUIT     79.18     0  03:30      0.17    0.09    1.00
  YS02001765YS02001762 CONDUIT     66.41     0  03:29      0.22    0.06    1.00
  YS02001770YS02001767 CONDUIT     60.00     0  02:33      0.31    0.24    1.00
  YS02001774YS02001770 CONDUIT     28.99     0  02:30      0.12    0.02    0.99
  YS02001779YS02001774 CONDUIT     25.48     0  03:58      0.07    0.01    0.91
  YS02001649YS02001757 CONDUIT    159.59     0  04:13      0.21    0.10    1.00
  YS02001767YS02001765 CONDUIT     71.24     0  03:25      0.26    0.09    1.00
  YS02006561YS02001783 CONDUIT    174.03     0  02:56      1.53    0.09    0.44
  YS02001783YS02001784 CONDUIT    182.03     0  03:12      1.02    0.25    0.72
  YS02001784YS02001785 CONDUIT    199.39     0  03:11      1.06    0.46    0.77
  YS02001788YS02001790 CONDUIT    221.93     0  03:11      1.61    0.16    0.92
  YS02001790YS02001791 CONDUIT    230.99     0  04:20      1.88    0.25    1.00
  YS02001791YS02001793 CONDUIT    236.22     0  04:20      3.66    0.10    1.00
  YS02001910YS02001907 CONDUIT     53.73     0  03:01      0.49    0.03    0.62
  YS02001786YS02001788 CONDUIT    217.58     0  03:11      1.46    0.42    0.81
  YS02001915YS02001910 CONDUIT     53.68     0  03:01      0.44    0.03    0.41
  YS02001918YS02001915 CONDUIT     18.66     0  03:04      0.44    0.01    0.19
  YS02001923YS02001920 CONDUIT     15.81     0  03:02      0.32    0.01    0.11
  YS02001926YS02001923 CONDUIT     15.78     0  03:02      0.38    0.02    0.10
  YS02001929YS02001926 CONDUIT     15.76     0  03:01      0.40    0.01    0.10
  YS02001920YS02001918 CONDUIT     18.67     0  03:03      0.36    0.02    0.12
  YS02001629YS02163301 CONDUIT     39.98     0  02:38      0.09    0.05    0.98
  YS02001619YS02001622 CONDUIT     37.62     0  04:12      0.56    0.06    0.59
  YS02001622YS02001625 CONDUIT     41.10     0  04:19      0.18    0.02    0.75
  YS02001625YS02001629 CONDUIT     49.60     0  04:58      0.18    0.02    0.74
  YS02163301YS02001633 CONDUIT     42.57     0  02:38      0.09    0.04    1.00
  YS02163601YS02164001 CONDUIT     71.48     0  03:25      0.11    0.06    1.00
  YS02164001YS02001641 CONDUIT     72.51     0  03:25      0.11    0.10    1.00
  YS02001641YS02001644 CONDUIT     66.73     0  03:28      0.13    0.22    1.00
  YS02001647YS02001649 CONDUIT    108.54     0  03:22      0.17    0.06    0.95
  YS02006553YS02006556 CONDUIT    118.81     0  03:02      0.20    0.10    0.71
  YS02006556YS02006558 CONDUIT    118.91     0  03:03      0.19    0.09    0.74
  YSB6556YSB1171       CONDUIT      7.54     0  02:24      0.04    0.01    0.51
  YS02001907YS02006553 CONDUIT    118.64     0  03:02      0.16    0.14    0.81
  YS02006558YS02006561 CONDUIT    174.03     0  02:55      1.97    0.38    0.35
  YS02001633YS02163601 CONDUIT     75.85     0  02:38      0.13    0.08    1.00
  YS02001644YS02001647 CONDUIT    104.62     0  03:25      0.18    0.06    0.95
  YS02001745YS02001748 CONDUIT     38.61     0  03:01      1.20    0.01    0.20
  YS02001748YS02001751 CONDUIT    117.37     0  04:12      0.95    0.06    0.53
  YS02001751YS02001754 CONDUIT     74.84     0  03:22      0.88    0.04    0.74
  YS02001754YS02001757 CONDUIT    104.32     0  04:12      0.33    0.04    0.95
  YS02001882YS02001884 CONDUIT      2.38     0  02:12      0.06    0.00    0.35
  YS02001884YS02001887 CONDUIT      7.37     0  02:07      0.05    0.01    0.44
  YS02001890YS02001895 CONDUIT     65.90     0  02:49      0.22    0.03    0.41
  YS02001895YS02001898 CONDUIT     65.82     0  02:50      0.44    0.11    0.28
  YS02001898YS02001901 CONDUIT     65.86     0  02:50      0.26    0.04    0.36
  YS02001901YS02001904 CONDUIT     65.57     0  02:51      0.22    0.10    0.41
  YS02001904YS02001907 CONDUIT     65.68     0  02:53      0.14    0.02    0.57
  YS02001887YS02001890 CONDUIT     66.11     0  02:47      0.17    0.11    0.50
  YS02001652YS02001649 CONDUIT     94.56     0  04:17      0.29    0.05    0.96
  YS02001655YS02001652 CONDUIT     57.52     0  03:25      0.94    0.03    0.78
  YS02001658YS02001655 CONDUIT     95.21     0  04:16      1.09    0.04    0.51
  YS02001661YS02001658 CONDUIT     46.71     0  02:47      1.22    0.02    0.21
  YS02001664YS02001661 CONDUIT     46.71     0  02:46      0.83    0.01    0.12
  YSB1154YSB6556       CONDUIT      7.50     0  02:21      0.19    0.01    0.40
  YSB1174YSB1171       CONDUIT      7.18     0  02:14      0.04    0.01    0.52
  YSB1171HS02004479    CONDUIT     13.94     0  02:23      0.54    0.01    0.39
  HS02004881HS02006253 CONDUIT     22.40     0  02:21      1.34    0.00    0.19
  YS02001793JiankangQianchi CONDUIT    334.54     0  02:57      9.88    0.03    1.00
  YS02001757CaochengTiaoxuchi CONDUIT    262.79     0  03:00      0.65    0.12    0.75
  WSF200WS02003060     CONDUIT    296.82     0  04:34      1.78    0.07    0.21
  1                    CONDUIT    338.21     0  04:35      2.45    0.12    0.23
  2                    CONDUIT     28.91     0  06:01      3.39    0.07    0.18
  3                    CONDUIT    250.55     0  00:00      8.26    0.40    0.46
  4                    CONDUIT      0.00     0  00:00      0.00    0.00    0.00
  CC-Pump-1            PUMP       199.99     0  07:20              1.00
  CC-Pump-2            PUMP       200.00     0  04:10              1.00
  JK-Pump-1            PUMP       300.00     0  00:00              1.00
  JK-Pump-2            PUMP       300.00     0  05:40              1.00
  XR-Pump-1            PUMP        95.00     0  00:20              1.00
  XR-Pump-2            PUMP        94.98     0  04:10              1.00
  XR-Pump-3            PUMP         0.00     0  00:00              0.00
  XR-Pump-4            PUMP        95.00     0  04:00              1.00
  
  
  ***************************
  Flow Classification Summary
  ***************************
  
  -------------------------------------------------------------------------------------
                      Adjusted    ---------- Fraction of Time in Flow Class ---------- 
                       /Actual         Up    Down  Sub   Sup   Up    Down  Norm  Inlet 
  Conduit               Length    Dry  Dry   Dry   Crit  Crit  Crit  Crit  Ltd   Ctrl  
  -------------------------------------------------------------------------------------
  WS02003066WSF200        1.00   0.11  0.00  0.00  0.00  0.89  0.00  0.00  0.75  0.00
  WS02006287WS02006284    1.00   0.07  0.03  0.00  0.74  0.17  0.00  0.00  0.81  0.00
  WS02006284WS02006280    1.00   0.08  0.00  0.00  0.00  0.00  0.00  0.92  0.00  0.00
  WS02006280WS02006229    1.00   0.08  0.00  0.00  0.00  0.00  0.00  0.92  0.00  0.00
  WS02006229WS02006228    1.00   0.00  0.00  0.00  0.98  0.00  0.00  0.02  0.00  0.00
  WS02006256WS02006235    1.00   0.00  0.00  0.00  0.99  0.01  0.00  0.00  0.00  0.00
  WS02006253WS02006251    1.00   0.05  0.02  0.00  0.92  0.00  0.01  0.00  0.00  0.00
  WS02006252WS02006251    1.00   0.15  0.00  0.00  0.00  0.00  0.85  0.00  0.00  0.00
  WS02006251WS02006249    1.00   0.00  0.00  0.00  1.00  0.00  0.00  0.00  0.59  0.00
  WS02006249WS02006248    1.00   0.00  0.04  0.00  0.59  0.00  0.37  0.00  0.00  0.00
  WS02006248WS02006247    1.00   0.04  0.00  0.00  0.96  0.00  0.00  0.00  0.52  0.00
  WS02006247WS02006245    1.00   0.03  0.00  0.00  0.94  0.00  0.00  0.02  0.00  0.00
  WS02006245WS02006243    1.00   0.02  0.01  0.00  0.83  0.00  0.00  0.14  0.02  0.00
  WS02006243WS02006242    1.00   0.01  0.01  0.00  0.98  0.00  0.00  0.00  0.57  0.00
  WS02006242WS02006240    1.00   0.01  0.00  0.00  0.99  0.00  0.01  0.00  0.00  0.00
  WS02006240WS02006239    1.00   0.00  0.00  0.00  0.84  0.00  0.00  0.15  0.04  0.00
  WS02006239WS02006238    1.00   0.00  0.00  0.00  1.00  0.00  0.00  0.00  0.18  0.00
  WS02006238WS02006235    1.00   0.00  0.00  0.00  1.00  0.00  0.00  0.00  0.00  0.00
  WS02006235WS02006234    1.00   0.00  0.00  0.00  0.90  0.00  0.10  0.00  0.00  0.00
  WS02006234WS02006232    1.00   0.00  0.00  0.00  1.00  0.00  0.00  0.00  0.11  0.00
  WS02006232WS02006231    1.00   0.00  0.00  0.00  0.99  0.00  0.01  0.00  0.00  0.00
  WS02006231WS02006230    1.00   0.01  0.00  0.00  0.01  0.00  0.98  0.00  0.00  0.00
  WS02006230WS02006229    1.00   0.00  0.00  0.00  0.97  0.00  0.00  0.03  0.02  0.00
  WS02006228WS02006109    1.00   0.00  0.00  0.00  0.99  0.00  0.00  0.01  0.00  0.00
  WS02006116WS02004401    1.00   0.04  0.00  0.00  0.96  0.00  0.00  0.00  0.00  0.00
  WS02006115WS02006116    1.00   0.04  0.00  0.00  0.95  0.00  0.00  0.01  0.00  0.00
  WS02006113WS02006111    1.00   0.03  0.00  0.00  0.00  0.96  0.00  0.00  0.17  0.00
  WS02006112WS02006115    1.00   0.04  0.01  0.00  0.95  0.00  0.00  0.00  0.00  0.00
  WS02006111WS02006112    1.00   0.04  0.00  0.00  0.96  0.00  0.00  0.00  0.98  0.00
  WS02006110WS02006113    1.00   0.02  0.01  0.00  0.97  0.00  0.00  0.00  0.00  0.00
  WS02006109WS02006110    1.00   0.00  0.02  0.00  0.97  0.00  0.01  0.00  0.00  0.00
  WS02004411WS02004412    1.00   0.07  0.00  0.00  0.93  0.00  0.00  0.00  0.00  0.00
  WS02004401WS02004402    1.00   0.04  0.00  0.00  0.96  0.00  0.00  0.00  0.00  0.00
  WS02004413WS02003067    1.00   0.07  0.03  0.00  0.00  0.00  0.90  0.00  0.00  0.00
  WS02004412WS02004413    1.00   0.07  0.00  0.00  0.93  0.00  0.00  0.00  0.04  0.00
  WS02004410WS02004411    1.00   0.07  0.00  0.00  0.93  0.00  0.00  0.00  0.04  0.00
  WS02004409WS02004410    1.00   0.07  0.00  0.00  0.93  0.00  0.00  0.00  0.04  0.00
  WS02004407WS02004409    1.00   0.07  0.00  0.00  0.93  0.00  0.00  0.00  0.89  0.00
  WS02004406WS02004407    1.00   0.00  0.07  0.00  0.93  0.00  0.00  0.00  0.00  0.00
  WS02004405WS02004406    1.00   0.00  0.00  0.00  1.00  0.00  0.00  0.00  0.00  0.00
  WS02004404WS02004405    1.00   0.00  0.00  0.00  1.00  0.00  0.00  0.00  0.00  0.00
  WS02004403WS02004404    1.00   0.00  0.05  0.00  0.95  0.00  0.00  0.00  0.01  0.00
  WS02004402WS02004403    1.00   0.05  0.00  0.00  0.95  0.00  0.00  0.00  0.00  0.00
  WS02004139WS02001211    1.00   0.00  0.01  0.00  0.99  0.00  0.00  0.00  0.00  0.00
  WS02004138WS02004139    1.00   0.03  0.07  0.00  0.89  0.00  0.00  0.00  0.98  0.00
  WS02003067WS02003066    1.00   0.10  0.01  0.00  0.89  0.00  0.00  0.00  0.00  0.00
  WS02001213WS02003059    1.00   0.00  0.01  0.00  0.98  0.00  0.00  0.00  0.00  0.00
  WS02001212WS02001213    1.00   0.05  0.00  0.00  0.32  0.00  0.63  0.00  0.00  0.00
  WS02001211WS02001212    1.00   0.00  0.05  0.00  0.95  0.00  0.00  0.00  0.00  0.00
  WS02003072WS02003073    1.00   0.00  0.00  0.00  0.00  0.00  0.00  1.00  0.00  0.00
  WS02003069WS02003072    1.00   0.00  0.00  0.00  0.99  0.01  0.00  0.00  0.98  0.00
  WS02003060WS02003069    1.00   0.00  0.00  0.00  0.98  0.02  0.00  0.00  0.72  0.00
  WS02003059WS02003060    1.00   0.00  0.00  0.00  0.99  0.01  0.00  0.00  0.04  0.00
  HS02004901HS02004770    1.00   0.08  0.00  0.00  0.92  0.00  0.00  0.00  0.03  0.00
  HS02004876HS02004881    1.00   0.04  0.00  0.00  0.96  0.00  0.00  0.00  0.00  0.00
  HS02004870HS02004876    1.00   0.01  0.00  0.00  0.99  0.00  0.00  0.00  0.95  0.00
  HS02004842HS02004848    1.00   0.00  0.08  0.00  0.92  0.00  0.00  0.00  0.71  0.00
  HS02004837HS02004842    1.00   0.00  0.00  0.00  0.99  0.01  0.00  0.00  0.11  0.00
  HS02004830HS02004837    1.00   0.00  0.00  0.00  1.00  0.00  0.00  0.00  0.99  0.00
  HS02004824HS02004830    1.00   0.00  0.00  0.00  1.00  0.00  0.00  0.00  0.00  0.00
  HS02004817HS02004824    1.00   0.00  0.00  0.00  1.00  0.00  0.00  0.00  1.00  0.00
  HS02004770HS02004777    1.00   0.00  0.08  0.00  0.92  0.00  0.00  0.00  0.08  0.00
  HS02004799HS02004480    1.00   0.01  0.04  0.00  0.90  0.00  0.05  0.00  0.00  0.00
  HS02004792HS02004799    1.00   0.00  0.00  0.00  0.98  0.02  0.00  0.00  0.98  0.00
  HS02004788HS02004792    1.00   0.00  0.00  0.00  0.98  0.02  0.00  0.00  0.98  0.00
  HS02004785HS02004788    1.00   0.00  0.00  0.00  1.00  0.00  0.00  0.00  0.00  0.00
  HS02004777HS02004785    1.00   0.00  0.00  0.00  1.00  0.00  0.00  0.00  0.21  0.00
  HS02004480HS02004478    1.00   0.08  0.00  0.00  0.77  0.00  0.00  0.15  0.00  0.00
  HS02004479HS02004480    1.00   0.05  0.00  0.00  0.95  0.00  0.00  0.00  0.16  0.00
  HS02004862HS02004870    1.00   0.00  0.00  0.00  1.00  0.00  0.00  0.00  0.05  0.00
  HS02004848HS02004852    1.00   0.08  0.00  0.00  0.92  0.00  0.00  0.00  0.70  0.00
  HS02004856HS02004862    1.00   0.00  0.12  0.00  0.88  0.00  0.00  0.00  0.73  0.00
  HS02004852HS02004856    1.00   0.08  0.01  0.00  0.91  0.00  0.00  0.00  0.82  0.00
  HS02004802HS02004478    1.00   0.08  0.01  0.00  0.91  0.00  0.00  0.00  0.00  0.00
  HS02004478WS02006287    1.00   0.09  0.00  0.00  0.91  0.00  0.00  0.00  0.81  0.00
  HS02004817HS02004807    1.00   0.00  0.08  0.00  0.92  0.00  0.00  0.00  0.00  0.00
  HS02004807HS02004802    1.00   0.08  0.00  0.00  0.92  0.00  0.00  0.00  0.01  0.00
  YS02001759YS02001757    1.00   0.00  0.00  0.00  1.00  0.00  0.00  0.00  0.17  0.00
  YS02001762YS02001759    1.00   0.00  0.00  0.00  1.00  0.00  0.00  0.00  0.05  0.00
  YS02001765YS02001762    1.00   0.00  0.00  0.00  1.00  0.00  0.00  0.00  0.23  0.00
  YS02001770YS02001767    1.00   0.00  0.00  0.00  1.00  0.00  0.00  0.00  0.00  0.00
  YS02001774YS02001770    1.00   0.00  0.09  0.00  0.91  0.00  0.00  0.00  0.07  0.00
  YS02001779YS02001774    1.00   0.00  0.00  0.00  1.00  0.00  0.00  0.00  0.28  0.00
  YS02001649YS02001757    1.00   0.00  0.00  0.00  1.00  0.00  0.00  0.00  0.19  0.00
  YS02001767YS02001765    1.00   0.00  0.00  0.00  1.00  0.00  0.00  0.00  0.01  0.00
  YS02006561YS02001783    1.00   0.12  0.00  0.00  0.22  0.66  0.00  0.00  0.72  0.00
  YS02001783YS02001784    1.00   0.00  0.12  0.00  0.88  0.00  0.00  0.00  0.10  0.00
  YS02001784YS02001785    1.00   0.00  0.00  0.00  1.00  0.00  0.00  0.00  0.26  0.00
  YS02001788YS02001790    1.00   0.00  0.00  0.00  0.43  0.57  0.00  0.00  0.74  0.00
  YS02001790YS02001791    1.00   0.00  0.00  0.00  0.36  0.64  0.00  0.00  0.15  0.00
  YS02001791YS02001793    1.00   0.00  0.00  0.00  0.44  0.56  0.00  0.00  0.09  0.00
  YS02001910YS02001907    1.00   0.00  0.00  0.00  0.95  0.00  0.00  0.04  0.13  0.00
  YS02001786YS02001788    1.00   0.00  0.00  0.00  0.38  0.62  0.00  0.00  0.00  0.00
  YS02001915YS02001910    1.00   0.00  0.00  0.00  0.98  0.02  0.00  0.00  0.25  0.00
  YS02001918YS02001915    1.00   0.00  0.01  0.00  0.96  0.03  0.00  0.00  0.81  0.00
  YS02001923YS02001920    1.00   0.00  0.00  0.00  1.00  0.00  0.00  0.00  1.00  0.00
  YS02001926YS02001923    1.00   0.00  0.06  0.00  0.00  0.00  0.94  0.00  0.00  0.00
  YS02001929YS02001926    1.00   0.00  0.08  0.00  0.92  0.00  0.00  0.00  0.86  0.00
  YS02001920YS02001918    1.00   0.00  0.01  0.00  0.99  0.00  0.00  0.00  0.00  0.00
  YS02001629YS02163301    1.00   0.11  0.01  0.00  0.89  0.00  0.00  0.00  0.00  0.00
  YS02001619YS02001622    1.00   0.08  0.00  0.00  0.92  0.00  0.00  0.00  0.00  0.00
  YS02001622YS02001625    1.00   0.08  0.00  0.00  0.92  0.00  0.00  0.00  0.14  0.00
  YS02001625YS02001629    1.00   0.08  0.05  0.00  0.85  0.00  0.02  0.00  0.00  0.00
  YS02163301YS02001633    1.00   0.00  0.11  0.00  0.89  0.00  0.00  0.00  0.00  0.00
  YS02163601YS02164001    1.00   0.00  0.06  0.00  0.94  0.00  0.00  0.00  0.00  0.00
  YS02164001YS02001641    1.00   0.02  0.05  0.00  0.94  0.00  0.00  0.00  0.07  0.00
  YS02001641YS02001644    1.00   0.00  0.01  0.00  0.99  0.00  0.00  0.00  0.00  0.00
  YS02001647YS02001649    1.00   0.00  0.12  0.00  0.88  0.00  0.00  0.00  0.01  0.00
  YS02006553YS02006556    1.00   0.03  0.00  0.00  0.97  0.00  0.00  0.00  0.03  0.00
  YS02006556YS02006558    1.00   0.00  0.01  0.00  0.99  0.00  0.00  0.00  0.00  0.00
  YSB6556YSB1171          1.00   0.05  0.03  0.00  0.93  0.00  0.00  0.00  0.00  0.00
  YS02001907YS02006553    1.00   0.00  0.04  0.00  0.96  0.00  0.00  0.00  0.00  0.00
  YS02006558YS02006561    1.00   0.12  0.00  0.00  0.00  0.88  0.00  0.00  0.71  0.00
  YS02001633YS02163601    1.00   0.00  0.01  0.00  0.99  0.00  0.00  0.00  0.20  0.00
  YS02001644YS02001647    1.00   0.00  0.12  0.00  0.88  0.00  0.00  0.00  0.00  0.00
  YS02001745YS02001748    1.00   0.00  0.00  0.00  0.71  0.06  0.00  0.23  0.59  0.00
  YS02001748YS02001751    1.00   0.00  0.00  0.00  0.96  0.04  0.00  0.00  0.28  0.00
  YS02001751YS02001754    1.00   0.00  0.00  0.00  0.87  0.00  0.00  0.13  0.02  0.00
  YS02001754YS02001757    1.00   0.00  0.00  0.00  0.99  0.01  0.00  0.00  0.27  0.00
  YS02001882YS02001884    1.00   0.10  0.01  0.00  0.89  0.00  0.00  0.00  0.00  0.00
  YS02001884YS02001887    1.00   0.05  0.02  0.00  0.93  0.00  0.00  0.00  0.00  0.00
  YS02001890YS02001895    1.00   0.00  0.11  0.00  0.89  0.00  0.00  0.00  0.00  0.00
  YS02001895YS02001898    1.00   0.11  0.00  0.00  0.88  0.00  0.01  0.00  0.00  0.00
  YS02001898YS02001901    1.00   0.11  0.01  0.00  0.89  0.00  0.00  0.00  0.02  0.00
  YS02001901YS02001904    1.00   0.11  0.00  0.00  0.89  0.00  0.00  0.00  0.00  0.00
  YS02001904YS02001907    1.00   0.00  0.10  0.00  0.89  0.00  0.00  0.00  0.00  0.00
  YS02001887YS02001890    1.00   0.00  0.00  0.00  0.95  0.00  0.04  0.00  0.00  0.00
  YS02001652YS02001649    1.00   0.00  0.00  0.00  1.00  0.00  0.00  0.00  0.27  0.00
  YS02001655YS02001652    1.00   0.00  0.00  0.00  0.87  0.00  0.00  0.13  0.03  0.00
  YS02001658YS02001655    1.00   0.00  0.10  0.00  0.86  0.04  0.00  0.00  0.20  0.00
  YS02001661YS02001658    1.00   0.10  0.00  0.00  0.71  0.19  0.00  0.00  0.72  0.00
  YS02001664YS02001661    1.00   0.08  0.00  0.00  0.92  0.00  0.00  0.00  0.86  0.00
  YSB1154YSB6556          1.00   0.07  0.00  0.00  0.93  0.00  0.00  0.00  0.02  0.00
  YSB1174YSB1171          1.00   0.05  0.01  0.00  0.93  0.00  0.00  0.00  0.00  0.00
  YSB1171HS02004479       1.00   0.05  0.00  0.00  0.95  0.00  0.00  0.00  0.13  0.00
  HS02004881HS02006253    1.00   0.05  0.00  0.00  0.28  0.02  0.00  0.65  0.14  0.00
  YS02001793JiankangQianchi    1.00   0.00  0.00  0.00  0.86  0.13  0.00  0.00  0.47  0.00
  YS02001757CaochengTiaoxuchi    1.00   0.00  0.15  0.00  0.85  0.00  0.00  0.00  0.00  0.00
  WSF200WS02003060        1.00   0.00  0.11  0.00  0.34  0.55  0.00  0.00  0.58  0.00
  1                       1.00   0.00  0.00  0.00  0.00  1.00  0.00  0.00  0.23  0.00
  2                       1.00   0.98  0.00  0.00  0.00  0.02  0.00  0.00  0.01  0.00
  3                       1.00   0.68  0.00  0.00  0.00  0.32  0.00  0.00  0.62  0.00
  4                       1.00   1.00  0.00  0.00  0.00  0.00  0.00  0.00  0.00  0.00
  
  
  *************************
  Conduit Surcharge Summary
  *************************
  
  ----------------------------------------------------------------------------
                                                           Hours        Hours 
                         --------- Hours Full --------   Above Full   Capacity
  Conduit                Both Ends  Upstream  Dnstream   Normal Flow   Limited
  ----------------------------------------------------------------------------
  WS02006229WS02006228        0.01      0.01      0.01      0.24         0.01
  WS02006256WS02006235        3.05      3.05      6.39      1.49         0.01
  WS02006252WS02006251        0.05      0.05      0.13      0.11         0.01
  WS02006251WS02006249        0.01      0.01      0.01      0.04         0.01
  WS02006249WS02006248        0.01      0.01      0.01      0.50         0.01
  WS02006247WS02006245        0.01      0.01      0.01      1.32         0.01
  WS02006242WS02006240        0.01      0.01      0.01      0.12         0.01
  WS02006240WS02006239        0.01      0.01      0.01      0.01         0.01
  WS02006239WS02006238        0.01      0.01      0.01      0.02         0.01
  WS02006235WS02006234        0.01      0.01      0.01      2.90         0.01
  WS02006231WS02006230        0.01      0.01      0.01      3.41         0.01
  WS02006230WS02006229        0.01      0.12      0.01      4.18         0.01
  WS02006228WS02006109        0.01      0.01      0.01      0.78         0.01
  WS02006111WS02006112        0.01      0.01      0.14      0.01         0.01
  WS02004404WS02004405        0.01      0.01      0.01      3.87         0.01
  YS02001759YS02001757        3.80      3.80      4.38      0.01         0.01
  YS02001762YS02001759        2.99      2.99      3.80      0.01         0.01
  YS02001765YS02001762        2.36      2.36      2.99      0.01         0.01
  YS02001770YS02001767        0.31      0.31      0.65      0.01         0.01
  YS02001774YS02001770        0.01      0.01      2.59      0.01         0.01
  YS02001779YS02001774        0.01      0.01      2.59      0.01         0.01
  YS02001649YS02001757        3.21      3.21      4.38      0.01         0.01
  YS02001767YS02001765        0.65      0.65      2.36      0.01         0.01
  YS02001788YS02001790        0.01      0.01      1.60      0.01         0.01
  YS02001790YS02001791        1.60      1.60      1.81      0.01         0.01
  YS02001791YS02001793        1.81      1.81      2.32      0.01         0.01
  YS02163301YS02001633        0.01      0.01      2.35      0.01         0.01
  YS02163601YS02164001        2.29      2.29      3.03      0.01         0.01
  YS02164001YS02001641        2.29      2.29      2.47      0.01         0.01
  YS02001641YS02001644        2.47      2.47      2.51      0.01         0.01
  YS02001647YS02001649        0.01      0.01      3.21      0.01         0.01
  YS02001633YS02163601        1.76      1.76      3.03      0.01         0.01
  YS02001644YS02001647        0.01      0.01      2.51      0.01         0.01
  YS02001754YS02001757        0.01      0.01      4.38      0.01         0.01
  YS02001652YS02001649        0.01      0.01      3.21      0.01         0.01
  YS02001793JiankangQianchi        2.19      2.19      4.67      0.01         0.01
  YS02001757CaochengTiaoxuchi        0.01      0.01      4.38      0.01         0.01
  
  
  ***************
  Pumping Summary
  ***************
  
  ---------------------------------------------------------------------------------------------------------
                                                  Min       Avg       Max     Total     Power    % Time Off
                        Percent   Number of      Flow      Flow      Flow    Volume     Usage    Pump Curve
  Pump                 Utilized   Start-Ups       LPS       LPS       LPS  10^6 ltr     Kw-hr    Low   High
  ---------------------------------------------------------------------------------------------------------
  CC-Pump-1               23.86           6      0.00    108.35    199.99     0.650      2.08    0.0   28.7
  CC-Pump-2               19.60           4      0.00    118.74    200.00     0.601      1.90    0.0    2.3
  JK-Pump-1               17.02           4      0.00    137.82    300.00     0.438      5.11    0.0    0.0
  JK-Pump-2               23.39           4      0.00    171.03    300.00     0.965      9.64    0.0    0.0
  XR-Pump-1               55.29           8      0.00     53.25     95.00     0.912      4.25    0.0    0.0
  XR-Pump-2                4.25           1      0.00     50.73     94.98     0.057      0.26    0.0    0.0
  XR-Pump-3                0.00           0      0.00      0.00      0.00     0.000      0.00    0.0    0.0
  XR-Pump-4               29.74           6      0.00     61.79     95.00     0.456      2.03    0.0    0.0
  

  Analysis begun on:  Wed Jan  5 21:39:52 2022
  Analysis ended on:  Wed Jan  5 21:39:53 2022
  Total elapsed time: 00:00:01