
  EPA STORM WATER MANAGEMENT MODEL - VERSION 5.1 (Build 5.3.0.dev0)
  --------------------------------------------------------------

  WARNING 04: minimum elevation drop used for Conduit WS02004404WS02004405
  WARNING 03: negative offset ignored for Link YS02001904YS02001907
  
  *********************************************************
  NOTE: The summary statistics displayed in this report are
  based on results found at every computational time step,  
  not just on results from each reporting time step.
  *********************************************************
  
  ****************
  Analysis Options
  ****************
  Flow Units ............... LPS
  Process Models:
    Rainfall/Runoff ........ YES
    RDII ................... NO
    Snowmelt ............... NO
    Groundwater ............ NO
    Flow Routing ........... YES
    Ponding Allowed ........ NO
    Water Quality .......... NO
  Infiltration Method ...... HORTON
  Flow Routing Method ...... DYNWAVE
  Surcharge Method ......... EXTRAN
  Starting Date ............ 08/28/2015 08:00:00
  Ending Date .............. 08/28/2015 15:50:00
  Antecedent Dry Days ...... 8.0
  Report Time Step ......... 00:01:00
  Wet Time Step ............ 00:01:00
  Dry Time Step ............ 00:01:00
  Routing Time Step ........ 5.00 sec
  Variable Time Step ....... YES
  Maximum Trials ........... 8
  Number of Threads ........ 4
  Head Tolerance ........... 0.001500 m
  
  
  **************************        Volume         Depth
  Runoff Quantity Continuity     hectare-m            mm
  **************************     ---------       -------
  Total Precipitation ......         1.927         4.218
  Evaporation Loss .........         0.000         0.000
  Infiltration Loss ........         0.476         1.041
  Surface Runoff ...........         0.648         1.419
  Final Storage ............         0.803         1.759
  Continuity Error (%) .....        -0.017
  
  
  **************************        Volume        Volume
  Flow Routing Continuity        hectare-m      10^6 ltr
  **************************     ---------     ---------
  Dry Weather Inflow .......         0.616         6.165
  Wet Weather Inflow .......         0.648         6.476
  Groundwater Inflow .......         0.000         0.000
  RDII Inflow ..............         0.000         0.000
  External Inflow ..........         0.102         1.024
  External Outflow .........         0.666         6.664
  Flooding Loss ............         0.373         3.730
  Evaporation Loss .........         0.000         0.000
  Exfiltration Loss ........         0.000         0.000
  Initial Stored Volume ....         0.076         0.761
  Final Stored Volume ......         0.405         4.055
  Continuity Error (%) .....        -0.164
  
  
  *************************
  Highest Continuity Errors
  *************************
  Node HS02004842 (36.51%)
  Node YS02001884 (30.85%)
  Node YS02001774 (20.16%)
  Node YSB1171 (10.47%)
  Node YS02001625 (10.14%)
  
  
  ***************************
  Time-Step Critical Elements
  ***************************
  Link 3 (39.50%)
  Link WS02006252WS02006251 (35.33%)
  Link WS02006280WS02006229 (12.35%)
  Link WS02006238WS02006235 (3.46%)
  Link WS02003066WSF200 (1.50%)
  
  
  ********************************
  Highest Flow Instability Indexes
  ********************************
  Link WS02006113WS02006111 (40)
  Link WS02006111WS02006112 (7)
  Link YS02001767YS02001765 (5)
  Link YS02001762YS02001759 (4)
  Link YS02001754YS02001757 (4)
  
  
  *************************
  Routing Time Step Summary
  *************************
  Minimum Time Step           :     0.50 sec
  Average Time Step           :     1.57 sec
  Maximum Time Step           :     5.00 sec
  Percent in Steady State     :    -0.00
  Average Iterations per Step :     2.11
  Percent Not Converging      :     0.47
  
  
  ***************************
  Subcatchment Runoff Summary
  ***************************
  
  ------------------------------------------------------------------------------------------------------------------------------
                            Total      Total      Total      Total     Imperv       Perv      Total       Total     Peak  Runoff
                           Precip      Runon       Evap      Infil     Runoff     Runoff     Runoff      Runoff   Runoff   Coeff
  Subcatchment                 mm         mm         mm         mm         mm         mm         mm    10^6 ltr      LPS
  ------------------------------------------------------------------------------------------------------------------------------
  sub0                       4.22       0.00       0.00       0.30       2.66       0.00       2.66        0.00     0.77   0.630
  sub1                       4.22       0.00       0.00       0.46       2.50       0.00       2.50        0.02     3.99   0.593
  sub2                       4.22       0.00       0.00       1.56       1.75       0.00       1.75        0.02     3.52   0.416
  sub3                       4.22       0.00       0.00       1.56       1.72       0.00       1.72        0.04     7.23   0.408
  sub4                       4.22       0.00       0.00       0.46       2.37       0.00       2.37        0.05     8.09   0.563
  sub5                       4.22       0.00       0.00       0.30       2.61       0.00       2.61        0.03     7.10   0.619
  sub7                       4.22       0.00       0.00       0.38       2.58       0.00       2.58        0.01     2.51   0.613
  sub8                       4.22       0.00       0.00       0.38       2.58       0.00       2.58        0.02     4.43   0.611
  sub9                       4.22       0.00       0.00       0.38       2.57       0.00       2.57        0.01     3.28   0.610
  sub10                      4.22       0.00       0.00       0.34       2.59       0.00       2.59        0.03     7.09   0.614
  sub11                      4.22       0.00       0.00       0.34       2.61       0.00       2.61        0.03     8.34   0.618
  sub12                      4.22       0.00       0.00       0.55       2.48       0.00       2.48        0.02     7.09   0.588
  sub14                      4.22       0.00       0.00       0.38       2.57       0.00       2.57        0.02     6.41   0.610
  sub15                      4.22       0.00       0.00       1.27       1.98       0.00       1.98        0.03     8.69   0.468
  sub16                      4.22       0.00       0.00       1.39       1.91       0.00       1.91        0.02     6.22   0.452
  sub17                      4.22       0.00       0.00       1.35       1.93       0.00       1.93        0.02     5.02   0.459
  sub22                      4.22       0.00       0.00       1.81       1.62       0.00       1.62        0.10    28.52   0.383
  sub23                      4.22       0.00       0.00       1.56       1.79       0.00       1.79        0.09    24.31   0.424
  sub60                      4.22       0.00       0.00       0.51       1.54       0.00       1.54        0.47    39.69   0.366
  sub61                      4.22       0.00       0.00       0.72       1.70       0.00       1.70        0.53    50.66   0.404
  sub62                      4.22       0.00       0.00       0.34       1.81       0.00       1.81        0.56    51.64   0.429
  sub63                      4.22       0.00       0.00       1.22       1.54       0.00       1.54        0.46    47.42   0.364
  sub64                      4.22       0.00       0.00       0.63       1.47       0.00       1.47        0.45    37.62   0.349
  sub65                      4.22       0.00       0.00       0.55       1.49       0.00       1.49        0.46    38.09   0.353
  sub66                      4.22       0.00       0.00       1.22       1.30       0.00       1.30        0.40    34.76   0.308
  sub67                      4.22       0.00       0.00       0.34       2.05       0.00       2.05        0.63    66.77   0.485
  sub68                      4.22       0.00       0.00       0.59       1.83       0.00       1.83        0.56    56.12   0.433
  sub69                      4.22       0.00       0.00       0.63       2.03       0.00       2.03        0.47    56.16   0.481
  sub70                      4.22       2.07       0.00       2.14       2.33       0.00       2.33        0.53    41.69   0.371
  sub71                      4.22       0.00       0.00       0.34       1.71       0.00       1.71        0.40    35.83   0.406
  sub72                      4.22       0.00       0.00       0.30       1.13       0.00       1.13        0.23    16.13   0.269
  sub73                      4.22       2.27       0.00       2.20       2.26       0.00       2.26        0.53    35.55   0.349
  sub74                      4.22       0.00       0.00       3.16       0.62       0.00       0.62        0.25    31.41   0.146
  
  
  ******************
  Node Depth Summary
  ******************
  
  ---------------------------------------------------------------------------------
                                 Average  Maximum  Maximum  Time of Max    Reported
                                   Depth    Depth      HGL   Occurrence   Max Depth
  Node                 Type       Meters   Meters   Meters  days hr:min      Meters
  ---------------------------------------------------------------------------------
  WS02001211           JUNCTION     0.50     0.61     5.45     0  04:07        0.61
  WS02001212           JUNCTION     0.25     0.34     5.41     0  04:06        0.34
  WS02001213           JUNCTION     0.44     0.57     5.33     0  04:04        0.57
  WS02003069           JUNCTION     0.27     0.40     4.98     0  04:04        0.40
  WS02003072           JUNCTION     0.34     0.47     4.84     0  04:04        0.47
  WS02003073           JUNCTION     0.19     0.28     4.34     0  04:05        0.28
  WS02003060           JUNCTION     0.24     0.36     5.29     0  04:03        0.36
  WS02003066           JUNCTION     0.16     0.26     5.81     0  03:03        0.26
  WS02003059           JUNCTION     0.51     0.64     5.32     0  04:05        0.64
  WS02003067           JUNCTION     0.42     0.63     5.95     0  03:02        0.63
  WS02004401           JUNCTION     0.49     0.73     6.73     0  02:59        0.73
  WS02004402           JUNCTION     0.52     0.76     6.72     0  02:59        0.76
  WS02004403           JUNCTION     0.55     0.78     6.71     0  02:59        0.78
  WS02004404           JUNCTION     0.62     0.86     6.71     0  02:59        0.86
  WS02004406           JUNCTION     0.64     0.86     6.69     0  02:59        0.86
  WS02004409           JUNCTION     0.30     0.54     6.31     0  03:01        0.54
  WS02004410           JUNCTION     0.32     0.56     6.28     0  03:02        0.56
  WS02004411           JUNCTION     0.34     0.58     6.26     0  03:02        0.58
  WS02004412           JUNCTION     0.37     0.59     6.23     0  03:02        0.59
  WS02004413           JUNCTION     0.52     0.76     6.23     0  03:02        0.76
  WS02004405           JUNCTION     0.62     0.85     6.70     0  02:59        0.85
  WS02006109           JUNCTION     0.57     0.82     7.43     0  02:55        0.82
  WS02006110           JUNCTION     0.58     0.81     7.39     0  02:55        0.81
  WS02006111           JUNCTION     0.15     0.24     6.95     0  02:56        0.24
  WS02006112           JUNCTION     0.65     0.90     6.78     0  02:58        0.90
  WS02006113           JUNCTION     0.22     0.38     7.27     0  02:55        0.38
  WS02006115           JUNCTION     0.38     0.62     6.75     0  02:58        0.62
  WS02006116           JUNCTION     0.46     0.70     6.74     0  02:59        0.70
  WS02006230           JUNCTION     0.48     0.80     7.54     0  02:55        0.80
  WS02006231           JUNCTION     0.29     0.52     7.64     0  02:54        0.52
  WS02006232           JUNCTION     0.41     0.66     7.69     0  02:54        0.66
  WS02006234           JUNCTION     0.31     0.57     7.73     0  02:54        0.57
  WS02006235           JUNCTION     0.34     0.60     7.76     0  02:54        0.60
  WS02006238           JUNCTION     0.36     0.63     7.78     0  02:54        0.63
  WS02006240           JUNCTION     0.26     0.57     7.86     0  02:53        0.56
  WS02006242           JUNCTION     0.30     0.65     7.92     0  02:52        0.65
  WS02006243           JUNCTION     0.19     0.54     7.96     0  02:52        0.54
  WS02006245           JUNCTION     0.18     0.54     8.02     0  02:51        0.54
  WS02006247           JUNCTION     0.20     0.57     8.07     0  02:51        0.57
  WS02006248           JUNCTION     0.16     0.52     8.11     0  02:51        0.52
  WS02006249           JUNCTION     0.20     0.56     8.16     0  02:51        0.56
  WS02006239           JUNCTION     0.31     0.61     7.81     0  02:53        0.60
  WS02006251           JUNCTION     0.18     0.59     8.26     0  02:50        0.58
  WS02006252           JUNCTION     0.17     0.58     8.83     0  02:50        0.58
  WS02006253           JUNCTION     0.21     0.62     8.27     0  02:50        0.61
  WS02006256           JUNCTION     0.78     1.20     8.13     0  03:40        1.20
  WS02004138           JUNCTION     0.09     0.14     7.39     0  04:03        0.14
  WS02004407           JUNCTION     0.14     0.25     6.56     0  03:00        0.25
  WS02006228           JUNCTION     0.55     0.82     7.47     0  02:55        0.82
  WS02006229           JUNCTION     0.51     0.80     7.49     0  02:55        0.80
  WS02006280           JUNCTION     0.05     0.11     8.38     0  02:25        0.11
  WS02006284           JUNCTION     0.34     0.43     8.83     0  02:25        0.43
  WS02006287           JUNCTION     0.07     0.16     9.11     0  02:24        0.16
  WSF200               JUNCTION     0.13     0.24     5.47     0  03:03        0.24
  HS02004901           JUNCTION     0.10     0.18    10.01     0  02:22        0.18
  HS02004881           JUNCTION     0.00     0.02     9.05     0  02:24        0.02
  HS02004876           JUNCTION     0.03     0.08     9.11     0  02:24        0.08
  HS02004870           JUNCTION     0.01     0.03     9.31     0  02:24        0.03
  HS02004862           JUNCTION     0.01     0.03     9.42     0  02:26        0.03
  HS02004856           JUNCTION     0.07     0.09     9.52     0  02:25        0.09
  HS02004852           JUNCTION     0.00     0.02     9.53     0  02:26        0.02
  HS02004848           JUNCTION     0.00     0.02     9.62     0  02:23        0.02
  HS02004842           JUNCTION     0.33     0.35     9.62     0  02:23        0.35
  HS02004837           JUNCTION     0.02     0.04     9.62     0  02:23        0.04
  HS02004830           JUNCTION     0.03     0.05     9.52     0  02:23        0.05
  HS02004824           JUNCTION     0.02     0.03     9.43     0  02:27        0.03
  HS02004817           JUNCTION     0.42     0.48     9.33     0  02:25        0.48
  HS02004807           JUNCTION     0.10     0.16     9.33     0  02:25        0.16
  HS02004802           JUNCTION     0.14     0.20     9.33     0  02:25        0.20
  HS02004799           JUNCTION     0.09     0.19     9.41     0  02:23        0.19
  HS02004792           JUNCTION     0.02     0.07     9.59     0  02:22        0.07
  HS02004788           JUNCTION     0.02     0.05     9.95     0  02:23        0.05
  HS02004785           JUNCTION     0.03     0.10    10.00     0  02:23        0.10
  HS02004777           JUNCTION     0.12     0.21    10.01     0  02:23        0.21
  HS02004770           JUNCTION     0.09     0.18    10.01     0  02:23        0.18
  HS02004480           JUNCTION     0.06     0.15     9.39     0  02:23        0.15
  HS02004479           JUNCTION     0.09     0.18     9.39     0  02:23        0.18
  HS02004478           JUNCTION     0.04     0.09     9.32     0  02:24        0.09
  YS02001745           JUNCTION     0.06     0.10     7.62     0  07:49        0.09
  YS02001748           JUNCTION     0.23     0.53     7.60     0  07:50        0.53
  YS02001751           JUNCTION     0.40     0.73     7.61     0  07:49        0.73
  YS02001754           JUNCTION     0.63     1.00     7.61     0  07:49        1.00
  YS02001762           JUNCTION     0.82     1.20     7.60     0  07:49        1.20
  YS02001765           JUNCTION     0.77     1.15     7.60     0  07:49        1.15
  YS02001767           JUNCTION     0.74     1.11     7.60     0  07:48        1.11
  YS02001770           JUNCTION     0.73     1.11     7.60     0  07:49        1.11
  YS02001774           JUNCTION     0.80     1.18     7.60     0  07:49        1.18
  YS02001779           JUNCTION     0.56     0.92     7.61     0  07:49        0.92
  YS02001882           JUNCTION     0.22     0.33     7.05     0  03:00        0.33
  YS02001884           JUNCTION     0.31     0.43     7.05     0  03:01        0.43
  YS02001759           JUNCTION     0.85     1.24     7.60     0  07:49        1.24
  YS02001887           JUNCTION     0.39     0.51     7.05     0  03:01        0.51
  YS02001890           JUNCTION     0.42     0.54     7.05     0  03:01        0.54
  YS02001898           JUNCTION     0.19     0.30     7.03     0  03:01        0.30
  YS02001901           JUNCTION     0.30     0.42     7.03     0  03:02        0.42
  YS02001904           JUNCTION     0.29     0.40     7.03     0  03:02        0.40
  YS02001907           JUNCTION     0.61     0.74     7.03     0  03:01        0.74
  YS02001910           JUNCTION     0.40     0.52     7.03     0  03:01        0.52
  YS02001915           JUNCTION     0.21     0.31     7.03     0  03:01        0.31
  YS02001918           JUNCTION     0.06     0.07     7.14     0  03:04        0.07
  YS02001619           JUNCTION     0.36     0.67     7.60     0  07:49        0.67
  YS02001629           JUNCTION     0.68     1.05     7.60     0  07:49        1.05
  YS02001641           JUNCTION     0.79     1.17     7.61     0  07:49        1.17
  YS02001644           JUNCTION     0.79     1.17     7.61     0  07:49        1.17
  YS02001652           JUNCTION     0.64     1.01     7.60     0  07:50        1.01
  YS02001655           JUNCTION     0.42     0.75     7.60     0  07:50        0.75
  YS02001920           JUNCTION     0.15     0.17     7.17     0  03:03        0.17
  YS02001923           JUNCTION     0.05     0.06     7.32     0  03:02        0.06
  YS02001926           JUNCTION     0.11     0.14     7.58     0  03:02        0.14
  YS02001929           JUNCTION     0.05     0.06     7.76     0  03:01        0.06
  YS02001658           JUNCTION     0.18     0.46     7.60     0  07:49        0.46
  YS02001661           JUNCTION     0.13     0.20     7.60     0  07:47        0.20
  YS02001664           JUNCTION     0.05     0.09     8.01     0  02:55        0.09
  YS02001622           JUNCTION     0.38     0.70     7.60     0  07:49        0.70
  YS02001633           JUNCTION     0.77     1.15     7.60     0  07:50        1.15
  YS02001649           JUNCTION     0.82     1.21     7.60     0  07:50        1.21
  YS02001757           JUNCTION     0.95     1.34     7.60     0  07:49        1.34
  YS02001895           JUNCTION     0.19     0.29     7.04     0  03:02        0.29
  YS02001625           JUNCTION     0.64     1.00     7.60     0  07:49        1.00
  YS02163301           JUNCTION     0.71     1.08     7.60     0  07:50        1.08
  YS02163601           JUNCTION     0.82     1.21     7.60     0  07:49        1.21
  YS02164001           JUNCTION     0.76     1.15     7.60     0  07:49        1.15
  YS02001647           JUNCTION     0.63     1.00     7.61     0  07:50        1.00
  YSB1154              JUNCTION     0.23     0.33     9.39     0  02:23        0.33
  YSB6556              JUNCTION     0.12     0.22     9.39     0  02:24        0.22
  YSB1174              JUNCTION     0.18     0.28     9.39     0  02:23        0.28
  YSB1171              JUNCTION     0.38     0.48     9.39     0  02:24        0.48
  YS02006553           JUNCTION     0.62     0.75     7.03     0  03:01        0.75
  YS02006561           JUNCTION     0.11     0.16     6.82     0  03:01        0.16
  YS02006556           JUNCTION     0.59     0.72     7.03     0  03:02        0.72
  YS02006558           JUNCTION     0.63     0.76     7.03     0  03:01        0.76
  YS02001783           JUNCTION     0.20     0.53     6.67     0  03:22        0.52
  YS02001784           JUNCTION     0.23     0.59     6.66     0  03:22        0.59
  YS02001786           JUNCTION     0.21     0.62     6.65     0  03:22        0.62
  YS02001788           JUNCTION     0.17     0.67     6.64     0  03:22        0.66
  YS02001790           JUNCTION     0.25     1.04     6.69     0  03:18        0.98
  YS02001791           JUNCTION     0.25     1.14     6.61     0  03:22        1.14
  YS02001793           JUNCTION     0.41     1.77     6.61     0  03:22        1.77
  WS02004139           JUNCTION     0.43     0.55     5.46     0  04:08        0.55
  WSC                  OUTFALL      0.19     0.28     0.95     0  04:05        0.28
  3                    OUTFALL      0.05     0.20     6.20     0  03:40        0.20
  4                    OUTFALL      0.00     0.06     7.06     0  02:51        0.06
  5                    OUTFALL      0.00     0.00     5.00     0  00:00        0.00
  JK-storage           STORAGE      3.27     5.80     6.60     0  03:21        5.80
  CC-storage           STORAGE      0.26     0.60     7.60     0  07:50        0.60
  XR-storage           STORAGE      7.67     7.72     5.72     0  00:51        7.72
  
  
  *******************
  Node Inflow Summary
  *******************
  
  -------------------------------------------------------------------------------------------------
                                  Maximum  Maximum                  Lateral       Total        Flow
                                  Lateral    Total  Time of Max      Inflow      Inflow     Balance
                                   Inflow   Inflow   Occurrence      Volume      Volume       Error
  Node                 Type           LPS      LPS  days hr:min    10^6 ltr    10^6 ltr     Percent
  -------------------------------------------------------------------------------------------------
  WS02001211           JUNCTION      7.35   197.86     0  04:10       0.207        2.65       0.922
  WS02001212           JUNCTION      0.00   198.11     0  04:10           0        2.63       0.474
  WS02001213           JUNCTION      0.00   198.37     0  04:10           0        2.62       0.575
  WS02003069           JUNCTION      0.32   481.53     0  04:03     0.00902        5.76       0.315
  WS02003072           JUNCTION      0.00   481.40     0  04:04           0        5.74       0.426
  WS02003073           JUNCTION      1.82   483.04     0  04:05      0.0514        5.77       0.455
  WS02003060           JUNCTION     16.53   481.23     0  04:03       0.466        5.78       0.306
  WS02003066           JUNCTION      0.00   369.22     0  03:03           0        2.75       0.124
  WS02003059           JUNCTION      0.00   199.04     0  04:11           0        2.61       1.145
  WS02003067           JUNCTION      0.00   369.16     0  03:02           0        2.76       0.273
  WS02004401           JUNCTION      0.00   383.98     0  02:58           0        2.94       0.561
  WS02004402           JUNCTION      0.00   381.97     0  02:58           0        2.92       0.546
  WS02004403           JUNCTION      0.00   380.81     0  02:58           0        2.91       0.514
  WS02004404           JUNCTION      0.16   380.03     0  02:59     0.00457         2.9       0.402
  WS02004406           JUNCTION      0.00   379.28     0  02:59           0        2.87       0.986
  WS02004409           JUNCTION      0.00   378.72     0  03:00           0        2.83       0.384
  WS02004410           JUNCTION      0.00   375.64     0  03:00           0        2.82       0.465
  WS02004411           JUNCTION      0.00   373.11     0  03:01           0        2.81       0.498
  WS02004412           JUNCTION      0.00   371.18     0  03:01           0         2.8       0.565
  WS02004413           JUNCTION      0.00   369.71     0  03:02           0        2.78       0.889
  WS02004405           JUNCTION      0.04   379.70     0  02:59     0.00107        2.88       0.609
  WS02006109           JUNCTION      1.23   394.61     0  02:54      0.0347           3       0.365
  WS02006110           JUNCTION      0.00   394.44     0  02:55           0        2.99       0.493
  WS02006111           JUNCTION      0.00   402.80     0  02:56           0        2.97       0.080
  WS02006112           JUNCTION      5.02   397.24     0  02:56      0.0166        2.99       0.712
  WS02006113           JUNCTION      0.00   394.16     0  02:55           0        2.98       0.174
  WS02006115           JUNCTION      0.00   392.88     0  02:56           0        2.97       0.533
  WS02006116           JUNCTION      0.00   387.04     0  02:57           0        2.95       0.426
  WS02006230           JUNCTION     10.28   321.56     0  03:44        0.29        2.35       0.242
  WS02006231           JUNCTION      0.00   311.45     0  03:43           0        2.07       0.222
  WS02006232           JUNCTION      0.00   314.18     0  02:53           0        2.08       0.578
  WS02006234           JUNCTION      0.00   319.65     0  02:52           0        2.08      -0.069
  WS02006235           JUNCTION      0.00   322.53     0  02:52           0        2.14       0.486
  WS02006238           JUNCTION      0.00   323.61     0  02:52           0        1.13       0.035
  WS02006240           JUNCTION      0.00   333.43     0  02:52           0        1.08       0.350
  WS02006242           JUNCTION      0.00   339.42     0  02:51           0        1.06       0.373
  WS02006243           JUNCTION      0.00   344.48     0  02:51           0        1.04      -0.340
  WS02006245           JUNCTION      0.00   348.58     0  02:51           0        1.05       0.521
  WS02006247           JUNCTION      0.00   353.13     0  02:50           0        1.05       0.090
  WS02006248           JUNCTION      0.00   357.52     0  02:50           0        1.04      -0.200
  WS02006249           JUNCTION      0.00   397.42     0  02:50           0        1.05       0.376
  WS02006239           JUNCTION      0.00   326.12     0  02:52           0         1.1      -0.130
  WS02006251           JUNCTION      0.08   401.99     0  02:50     0.00217        1.06      -0.059
  WS02006252           JUNCTION      0.00   399.33     0  02:50           0       0.963       0.035
  WS02006253           JUNCTION      0.77    21.59     0  02:23     0.00215      0.0987       0.101
  WS02006256           JUNCTION      0.00   599.77     0  03:40           0        1.97       0.109
  WS02004138           JUNCTION      0.00   190.00     0  04:00           0        2.45       0.075
  WS02004407           JUNCTION      0.00   378.89     0  02:59           0        2.84       0.170
  WS02006228           JUNCTION      0.00   394.05     0  02:54           0        2.98       0.348
  WS02006229           JUNCTION      0.00   394.37     0  02:54           0        2.99       0.342
  WS02006280           JUNCTION      0.00   117.83     0  02:25           0       0.644       0.012
  WS02006284           JUNCTION      0.10   117.83     0  02:25      0.0027       0.645       0.177
  WS02006287           JUNCTION      0.00   117.74     0  02:24           0       0.643       0.108
  WSF200               JUNCTION      0.00   369.20     0  03:03           0        2.75       0.104
  HS02004901           JUNCTION      6.22     6.22     0  02:14        0.02      0.0201       9.566
  HS02004881           JUNCTION      2.51    21.00     0  02:23      0.0087        0.09       0.132
  HS02004876           JUNCTION      3.99    18.70     0  02:23      0.0166      0.0818       0.638
  HS02004870           JUNCTION      4.43    14.79     0  02:23      0.0165      0.0653       0.163
  HS02004862           JUNCTION      3.72    10.66     0  02:24       0.022       0.049       0.340
  HS02004856           JUNCTION      3.28     6.97     0  02:23      0.0124      0.0285       5.309
  HS02004852           JUNCTION      0.00     3.90     0  02:24           0      0.0162       0.296
  HS02004848           JUNCTION      7.23     7.23     0  02:26      0.0388      0.0388       0.110
  HS02004842           JUNCTION      0.00     4.49     0  00:03           0      0.0356      57.509
  HS02004837           JUNCTION     13.44    16.61     0  02:22       0.208        0.23       0.352
  HS02004830           JUNCTION      0.15    16.75     0  02:23     0.00423       0.221       0.561
  HS02004824           JUNCTION      8.14    24.79     0  02:27      0.0509        0.27       0.200
  HS02004817           JUNCTION      0.60    25.39     0  02:27      0.0169       0.287       6.169
  HS02004807           JUNCTION      8.34    33.00     0  02:25      0.0303         0.3       1.428
  HS02004802           JUNCTION      0.00    33.08     0  02:27           0       0.296       1.389
  HS02004799           JUNCTION      6.41    72.17     0  02:22      0.0245       0.314       0.722
  HS02004792           JUNCTION     28.80    65.93     0  02:21        0.11        0.29       0.144
  HS02004788           JUNCTION     10.36    38.53     0  02:23      0.0811       0.182       0.216
  HS02004785           JUNCTION      0.15    28.52     0  02:22     0.00423       0.103       0.468
  HS02004777           JUNCTION      0.03    28.79     0  02:20    0.000846       0.103       5.292
  HS02004770           JUNCTION     24.31    29.67     0  02:17      0.0853       0.104       3.084
  HS02004480           JUNCTION      0.00    85.01     0  02:23           0       0.363       0.186
  HS02004479           JUNCTION      0.00    13.08     0  02:25           0      0.0608       1.212
  HS02004478           JUNCTION      0.00   117.75     0  02:24           0       0.644       0.102
  YS02001745           JUNCTION     39.69    39.69     0  03:01       0.468       0.468       0.167
  YS02001748           JUNCTION      0.04    89.36     0  04:45     0.00127       0.529       2.050
  YS02001751           JUNCTION      0.01   108.00     0  04:47     0.00031        0.53       3.548
  YS02001754           JUNCTION      0.26   176.13     0  04:08     0.00733       0.546       4.625
  YS02001762           JUNCTION      0.00    95.68     0  04:31           0       0.496       4.560
  YS02001765           JUNCTION      0.00    99.45     0  04:35           0       0.494       5.193
  YS02001767           JUNCTION      0.54    77.71     0  04:11      0.0151       0.511       7.549
  YS02001770           JUNCTION     51.79    64.36     0  04:25       0.561       0.608       5.515
  YS02001774           JUNCTION      0.00    35.91     0  04:37           0       0.126      25.254
  YS02001779           JUNCTION      0.01    32.34     0  04:37    0.000141       0.054      36.825
  YS02001882           JUNCTION      0.00     2.14     0  02:12           0     0.00347      71.017
  YS02001884           JUNCTION      0.00     6.50     0  02:08           0      0.0141      44.623
  YS02001759           JUNCTION     50.70   116.41     0  04:26       0.526       0.982       2.450
  YS02001887           JUNCTION     67.22    67.22     0  02:52       0.644        0.65       1.027
  YS02001890           JUNCTION      0.00    66.92     0  02:55           0       0.632       1.165
  YS02001898           JUNCTION      0.00    66.67     0  02:58           0       0.621       0.296
  YS02001901           JUNCTION      0.00    66.69     0  02:58           0       0.621       0.808
  YS02001904           JUNCTION      0.00    66.48     0  03:02           0        0.62       0.754
  YS02001907           JUNCTION      0.00   121.14     0  03:02           0        1.32       1.631
  YS02001910           JUNCTION      0.00    54.86     0  03:01           0        0.71       1.353
  YS02001915           JUNCTION     35.85    54.66     0  03:01       0.405       0.714       0.551
  YS02001918           JUNCTION      0.00    19.01     0  03:03           0        0.31       0.270
  YS02001619           JUNCTION     34.76    34.76     0  03:01       0.398       0.398       2.233
  YS02001629           JUNCTION      0.00    42.81     0  04:26           0       0.336       7.254
  YS02001641           JUNCTION      0.00    73.77     0  03:04           0       0.692       3.148
  YS02001644           JUNCTION     37.66   109.02     0  02:58       0.449        1.11       2.404
  YS02001652           JUNCTION      0.00    92.26     0  04:30           0       0.493       4.849
  YS02001655           JUNCTION      0.15    86.98     0  04:42     0.00434       0.503       3.981
  YS02001920           JUNCTION      2.87    19.02     0  03:02      0.0809       0.312       0.550
  YS02001923           JUNCTION      0.04    16.15     0  03:02     0.00106       0.231       0.097
  YS02001926           JUNCTION      0.05    16.17     0  03:01     0.00147       0.232       0.705
  YS02001929           JUNCTION     16.13    16.13     0  03:01       0.231       0.231       0.092
  YS02001658           JUNCTION      0.00    61.84     0  04:53           0       0.509       2.128
  YS02001661           JUNCTION      0.00    47.42     0  02:55           0       0.465       0.520
  YS02001664           JUNCTION     47.42    47.42     0  02:55       0.465       0.465       0.031
  YS02001622           JUNCTION      0.00    36.05     0  04:37           0        0.39       6.529
  YS02001633           JUNCTION     38.29    74.38     0  02:57       0.463        0.75       4.499
  YS02001649           JUNCTION      0.00   182.37     0  04:25           0        1.52       2.551
  YS02001757           JUNCTION      0.00   363.33     0  04:03           0        2.85       3.304
  YS02001895           JUNCTION      0.00    66.72     0  02:55           0       0.624       0.504
  YS02001625           JUNCTION      0.00    45.66     0  05:39           0       0.373      11.286
  YS02163301           JUNCTION      0.00    38.86     0  02:39           0       0.312       8.345
  YS02163601           JUNCTION      0.11    73.17     0  02:56      0.0031       0.717       4.415
  YS02164001           JUNCTION      0.00    73.77     0  03:04           0       0.695       3.028
  YS02001647           JUNCTION      0.00   109.09     0  03:04           0        1.08       2.659
  YSB1154              JUNCTION      7.10     7.10     0  02:20      0.0296       0.031       4.881
  YSB6556              JUNCTION      0.00     7.08     0  02:22           0      0.0321       4.033
  YSB1174              JUNCTION      7.09     7.09     0  02:14      0.0217      0.0227       5.984
  YSB1171              JUNCTION      0.00    13.07     0  02:22           0      0.0604      11.692
  YS02006553           JUNCTION      0.00   121.30     0  03:03           0        1.31       1.063
  YS02006561           JUNCTION      0.00   177.45     0  03:01           0        1.85       0.028
  YS02006556           JUNCTION      0.00   121.47     0  03:04           0        1.31       0.761
  YS02006558           JUNCTION     57.00   177.47     0  03:00       0.586        1.87       0.230
  YS02001783           JUNCTION      0.00   177.45     0  03:01           0        1.85       0.065
  YS02001784           JUNCTION      1.06   178.51     0  03:01      0.0299        1.88       0.113
  YS02001786           JUNCTION      0.06   186.18     0  03:35     0.00159        1.88       0.111
  YS02001788           JUNCTION      0.07   220.91     0  03:36       0.002        1.88       0.059
  YS02001790           JUNCTION      0.15   286.35     0  03:37     0.00437        1.88       0.040
  YS02001791           JUNCTION      0.00   320.49     0  03:37           0        1.88       0.009
  YS02001793           JUNCTION      0.00   354.98     0  03:38           0        1.89       0.052
  WS02004139           JUNCTION      0.32   190.32     0  04:03     0.00905        2.46       0.963
  WSC                  OUTFALL       0.00   482.75     0  04:05           0        5.74       0.000
  3                    OUTFALL       0.00   477.90     0  03:40           0       0.913       0.000
  4                    OUTFALL       0.00    40.02     0  02:51           0     0.00644       0.000
  5                    OUTFALL       0.00     0.00     0  00:00           0           0       0.000 ltr
  JK-storage           STORAGE       0.00   383.57     0  03:39           0        2.04      -1.341
  CC-storage           STORAGE       0.00   284.68     0  03:00           0        2.67       1.395
  XR-storage           STORAGE     265.04   265.04     0  03:01        6.42        7.02       0.005
  
  
  **********************
  Node Surcharge Summary
  **********************
  
  Surcharging occurs when water rises above the top of the highest conduit.
  ---------------------------------------------------------------------
                                               Max. Height   Min. Depth
                                   Hours       Above Crown    Below Rim
  Node                 Type      Surcharged         Meters       Meters
  ---------------------------------------------------------------------
  WS02006252           JUNCTION        0.13          0.185        0.915
  YS02001762           JUNCTION        2.38          0.203        0.947
  YS02001765           JUNCTION        1.97          0.153        0.947
  YS02001767           JUNCTION        1.64          0.112        0.918
  YS02001770           JUNCTION        1.31          0.079        0.841
  YS02001774           JUNCTION        2.21          0.182        0.868
  YS02001759           JUNCTION        2.65          0.240        0.970
  YS02001641           JUNCTION        2.08          0.168        0.932
  YS02001644           JUNCTION        2.12          0.174        0.746
  YS02001633           JUNCTION        1.78          0.129        0.931
  YS02001649           JUNCTION        2.45          0.215        0.835
  YS02001757           JUNCTION        3.41          0.344        0.866
  YS02163301           JUNCTION        1.38          0.085        0.945
  YS02163601           JUNCTION        2.40          0.206        0.874
  YS02164001           JUNCTION        1.91          0.147        0.953
  YS02001790           JUNCTION        0.40          0.244        0.913
  YS02001791           JUNCTION        0.68          0.344        1.576
  YS02001793           JUNCTION        1.32          0.773        1.827
  
  
  *********************
  Node Flooding Summary
  *********************
  
  Flooding refers to all water that overflows a node, whether it ponds or not.
  --------------------------------------------------------------------------
                                                             Total   Maximum
                                 Maximum   Time of Max       Flood    Ponded
                        Hours       Rate    Occurrence      Volume     Depth
  Node                 Flooded       LPS   days hr:min    10^6 ltr    Meters
  --------------------------------------------------------------------------
  JK-storage              0.18    204.51      0  03:23       0.089     0.000
  XR-storage              6.97    265.04      0  03:01       3.641     0.000
  
  
  **********************
  Storage Volume Summary
  **********************
  
  --------------------------------------------------------------------------------------------------
                         Average     Avg  Evap Exfil       Maximum     Max    Time of Max    Maximum
                          Volume    Pcnt  Pcnt  Pcnt        Volume    Pcnt     Occurrence    Outflow
  Storage Unit           1000 m3    Full  Loss  Loss       1000 m3    Full    days hr:min        LPS
  --------------------------------------------------------------------------------------------------
  JK-storage               0.164      56     0     0         0.291     100       0  03:21     599.77
  CC-storage               0.726       5     0     0         1.674      11       0  07:50     399.33
  XR-storage               0.921      99     0     0         0.926     100       0  00:51     190.00
  
  
  ***********************
  Outfall Loading Summary
  ***********************
  
  -----------------------------------------------------------
                         Flow       Avg       Max       Total
                         Freq      Flow      Flow      Volume
  Outfall Node           Pcnt       LPS       LPS    10^6 ltr
  -----------------------------------------------------------
  WSC                   99.99    240.76    482.75       5.744
  3                     48.11    150.44    477.90       0.913
  4                      2.41     17.07     40.02       0.006
  5                      0.00      0.00      0.00       0.000
  -----------------------------------------------------------
  System                37.63    408.27    682.44       6.664
  
  
  ********************
  Link Flow Summary
  ********************
  
  -----------------------------------------------------------------------------
                                 Maximum  Time of Max   Maximum    Max/    Max/
                                  |Flow|   Occurrence   |Veloc|    Full    Full
  Link                 Type          LPS  days hr:min     m/sec    Flow   Depth
  -----------------------------------------------------------------------------
  WS02003066WSF200     CONDUIT    369.20     0  03:03      2.60    0.06    0.18
  WS02006287WS02006284 CONDUIT    117.73     0  02:25      1.33    0.05    0.17
  WS02006284WS02006280 CONDUIT    117.83     0  02:25      1.58    0.05    0.15
  WS02006280WS02006229 CONDUIT    117.83     0  02:25      2.53    0.03    0.11
  WS02006229WS02006228 CONDUIT    394.05     0  02:54      0.79    1.31    0.99
  WS02006256WS02006235 CONDUIT    149.94     0  01:05      2.14    1.59    1.00
  WS02006253WS02006251 CONDUIT     30.43     0  02:57      0.39    0.09    0.86
  WS02006252WS02006251 CONDUIT    399.75     0  02:50      3.18    1.47    1.00
  WS02006251WS02006249 CONDUIT    397.42     0  02:50      1.18    1.15    0.82
  WS02006249WS02006248 CONDUIT    357.52     0  02:50      1.16    1.96    0.76
  WS02006248WS02006247 CONDUIT    353.13     0  02:50      1.13    0.77    0.77
  WS02006247WS02006245 CONDUIT    348.58     0  02:51      1.09    2.76    0.79
  WS02006245WS02006243 CONDUIT    344.48     0  02:51      1.12    1.02    0.76
  WS02006243WS02006242 CONDUIT    339.42     0  02:51      1.01    0.73    0.83
  WS02006242WS02006240 CONDUIT    333.43     0  02:52      0.96    1.32    0.86
  WS02006240WS02006239 CONDUIT    326.12     0  02:52      1.01    1.03    0.81
  WS02006239WS02006238 CONDUIT    323.61     0  02:52      0.92    1.04    0.87
  WS02006238WS02006235 CONDUIT    321.31     0  02:52      0.91    0.72    0.88
  WS02006235WS02006234 CONDUIT    319.65     0  02:52      1.11    3.37    0.81
  WS02006234WS02006232 CONDUIT    314.18     0  02:53      0.93    0.64    0.87
  WS02006232WS02006231 CONDUIT    311.45     0  03:43      0.94    0.65    0.83
  WS02006231WS02006230 CONDUIT    311.28     0  03:44      1.28    4.72    0.67
  WS02006230WS02006229 CONDUIT    321.63     0  03:44      0.84    7.16    1.00
  WS02006228WS02006109 CONDUIT    393.38     0  02:54      0.78    1.72    1.00
  WS02006116WS02004401 CONDUIT    383.98     0  02:58      0.74    0.53    0.71
  WS02006115WS02006116 CONDUIT    387.04     0  02:57      0.92    0.50    0.63
  WS02006113WS02006111 CONDUIT    402.80     0  02:56      2.21    0.48    0.39
  WS02006112WS02006115 CONDUIT    392.88     0  02:56      0.63    0.23    0.75
  WS02006111WS02006112 CONDUIT    395.20     0  02:56      1.15    0.19    0.65
  WS02006110WS02006113 CONDUIT    394.16     0  02:55      0.99    0.36    0.74
  WS02006109WS02006110 CONDUIT    394.44     0  02:55      0.81    0.76    0.93
  WS02004411WS02004412 CONDUIT    371.18     0  03:01      0.78    0.53    0.58
  WS02004401WS02004402 CONDUIT    381.97     0  02:58      0.74    0.46    0.74
  WS02004413WS02003067 CONDUIT    369.16     0  03:02      0.91    0.16    0.51
  WS02004412WS02004413 CONDUIT    369.71     0  03:02      0.76    0.25    0.68
  WS02004410WS02004411 CONDUIT    373.11     0  03:01      0.81    0.51    0.57
  WS02004409WS02004410 CONDUIT    375.64     0  03:00      0.86    0.49    0.55
  WS02004407WS02004409 CONDUIT    378.72     0  03:00      1.34    0.13    0.39
  WS02004406WS02004407 CONDUIT    378.89     0  02:59      0.85    0.17    0.55
  WS02004405WS02004406 CONDUIT    379.28     0  02:59      0.53    0.75    0.86
  WS02004404WS02004405 CONDUIT    379.66     0  02:59      0.53    3.72    0.85
  WS02004403WS02004404 CONDUIT    379.87     0  02:59      0.59    0.27    0.82
  WS02004402WS02004403 CONDUIT    380.81     0  02:58      0.77    0.55    0.77
  WS02004139WS02001211 CONDUIT    190.52     0  04:10      0.53    0.24    0.44
  WS02004138WS02004139 CONDUIT    190.00     0  04:03      2.39    0.04    0.32
  WS02003067WS02003066 CONDUIT    369.22     0  03:03      0.98    0.12    0.37
  WS02001213WS02003059 CONDUIT    199.04     0  04:11      0.45    0.33    0.59
  WS02001212WS02001213 CONDUIT    198.37     0  04:10      1.03    0.31    0.30
  WS02001211WS02001212 CONDUIT    198.11     0  04:10      0.54    0.15    0.48
  WS02003072WS02003073 CONDUIT    481.22     0  04:05      1.37    1.04    0.35
  WS02003069WS02003072 CONDUIT    481.40     0  04:04      1.31    0.23    0.36
  WS02003060WS02003069 CONDUIT    481.21     0  04:03      1.59    0.19    0.31
  WS02003059WS02003060 CONDUIT    200.04     0  04:11      0.59    0.13    0.50
  HS02004901HS02004770 CONDUIT      5.61     0  02:20      0.03    0.02    0.26
  HS02004876HS02004881 CONDUIT     18.70     0  02:24      0.37    0.20    0.07
  HS02004870HS02004876 CONDUIT     14.78     0  02:24      0.26    0.01    0.08
  HS02004842HS02004848 CONDUIT      3.52     0  02:36      0.02    0.00    0.26
  HS02004837HS02004842 CONDUIT      4.49     0  00:03      0.42    0.00    0.28
  HS02004830HS02004837 CONDUIT     16.60     0  02:23      0.38    0.02    0.06
  HS02004824HS02004830 CONDUIT     16.75     0  02:24      0.42    0.02    0.06
  HS02004817HS02004824 CONDUIT     24.79     0  02:27      0.17    0.01    0.37
  HS02004770HS02004777 CONDUIT     28.76     0  02:20      0.15    0.05    0.27
  HS02004799HS02004480 CONDUIT     72.05     0  02:22      0.44    0.09    0.24
  HS02004792HS02004799 CONDUIT     65.90     0  02:22      0.51    0.04    0.19
  HS02004788HS02004792 CONDUIT     38.51     0  02:23      0.67    0.03    0.08
  HS02004785HS02004788 CONDUIT     28.42     0  02:23      0.39    0.21    0.10
  HS02004777HS02004785 CONDUIT     28.37     0  02:22      0.19    0.03    0.22
  HS02004480HS02004478 CONDUIT     84.97     0  02:23      0.75    0.36    0.16
  HS02004479HS02004480 CONDUIT     13.17     0  02:25      0.16    0.01    0.23
  HS02004862HS02004870 CONDUIT     10.63     0  02:25      0.36    0.01    0.04
  HS02004848HS02004852 CONDUIT      3.90     0  02:24      0.23    0.00    0.02
  HS02004856HS02004862 CONDUIT      6.95     0  02:25      0.26    0.01    0.04
  HS02004852HS02004856 CONDUIT      3.87     0  02:26      0.07    0.00    0.08
  HS02004802HS02004478 CONDUIT     33.22     0  02:28      0.23    0.03    0.21
  HS02004478WS02006287 CONDUIT    117.74     0  02:24      1.02    0.03    0.13
  HS02004817HS02004807 CONDUIT     25.61     0  02:29      0.08    0.02    0.46
  HS02004807HS02004802 CONDUIT     33.08     0  02:27      0.19    0.06    0.25
  YS02001759YS02001757 CONDUIT    108.31     0  02:59      0.15    0.08    1.00
  YS02001762YS02001759 CONDUIT     89.94     0  04:26      0.17    0.10    1.00
  YS02001765YS02001762 CONDUIT     95.68     0  04:31      0.22    0.09    1.00
  YS02001770YS02001767 CONDUIT     59.39     0  02:59      0.29    0.24    1.00
  YS02001774YS02001770 CONDUIT     35.91     0  04:37      0.11    0.02    1.00
  YS02001779YS02001774 CONDUIT     32.34     0  04:37      0.06    0.02    0.96
  YS02001649YS02001757 CONDUIT    171.92     0  04:24      0.23    0.10    1.00
  YS02001767YS02001765 CONDUIT     91.34     0  04:13      0.25    0.11    1.00
  YS02006561YS02001783 CONDUIT    177.45     0  03:01      1.54    0.09    0.43
  YS02001783YS02001784 CONDUIT    177.45     0  03:01      1.02    0.24    0.70
  YS02001784YS02001785 CONDUIT    186.12     0  03:35      1.07    0.43    0.76
  YS02001788YS02001790 CONDUIT    286.19     0  03:37      1.61    0.21    0.92
  YS02001790YS02001791 CONDUIT    320.49     0  03:37      1.89    0.35    1.00
  YS02001791YS02001793 CONDUIT    354.98     0  03:38      3.69    0.15    1.00
  YS02001910YS02001907 CONDUIT     54.80     0  03:04      0.50    0.03    0.63
  YS02001786YS02001788 CONDUIT    220.84     0  03:36      1.55    0.43    0.80
  YS02001915YS02001910 CONDUIT     54.86     0  03:01      0.44    0.03    0.42
  YS02001918YS02001915 CONDUIT     19.00     0  03:04      0.44    0.01    0.19
  YS02001923YS02001920 CONDUIT     16.15     0  03:02      0.33    0.01    0.11
  YS02001926YS02001923 CONDUIT     16.12     0  03:02      0.39    0.02    0.10
  YS02001929YS02001926 CONDUIT     16.12     0  03:01      0.40    0.01    0.10
  YS02001920YS02001918 CONDUIT     19.01     0  03:03      0.36    0.02    0.12
  YS02001629YS02163301 CONDUIT     38.86     0  02:39      0.09    0.05    1.00
  YS02001619YS02001622 CONDUIT     36.05     0  04:37      0.55    0.05    0.69
  YS02001622YS02001625 CONDUIT     37.12     0  04:24      0.18    0.02    0.85
  YS02001625YS02001629 CONDUIT     42.81     0  04:26      0.18    0.02    0.84
  YS02163301YS02001633 CONDUIT     37.25     0  02:39      0.08    0.04    1.00
  YS02163601YS02164001 CONDUIT     73.77     0  03:04      0.11    0.07    1.00
  YS02164001YS02001641 CONDUIT     73.77     0  03:04      0.12    0.10    1.00
  YS02001641YS02001644 CONDUIT     72.05     0  03:04      0.12    0.23    1.00
  YS02001647YS02001649 CONDUIT    110.01     0  03:06      0.19    0.06    1.00
  YS02006553YS02006556 CONDUIT    121.47     0  03:04      0.20    0.10    0.71
  YS02006556YS02006558 CONDUIT    121.58     0  03:04      0.20    0.10    0.74
  YSB6556YSB1171       CONDUIT      7.12     0  02:26      0.04    0.01    0.50
  YS02001907YS02006553 CONDUIT    121.30     0  03:03      0.17    0.14    0.81
  YS02006558YS02006561 CONDUIT    177.45     0  03:01      1.98    0.39    0.35
  YS02001633YS02163601 CONDUIT     73.06     0  02:56      0.12    0.08    1.00
  YS02001644YS02001647 CONDUIT    109.09     0  03:04      0.19    0.06    1.00
  YS02001745YS02001748 CONDUIT     39.68     0  03:01      1.21    0.02    0.27
  YS02001748YS02001751 CONDUIT    107.99     0  04:47      0.94    0.05    0.63
  YS02001751YS02001754 CONDUIT     96.30     0  04:06      0.86    0.05    0.84
  YS02001754YS02001757 CONDUIT    144.89     0  04:10      0.33    0.06    1.00
  YS02001882YS02001884 CONDUIT      2.14     0  02:12      0.05    0.00    0.35
  YS02001884YS02001887 CONDUIT      6.50     0  02:08      0.05    0.01    0.45
  YS02001890YS02001895 CONDUIT     66.72     0  02:55      0.22    0.03    0.42
  YS02001895YS02001898 CONDUIT     66.67     0  02:58      0.42    0.12    0.28
  YS02001898YS02001901 CONDUIT     66.69     0  02:58      0.26    0.04    0.36
  YS02001901YS02001904 CONDUIT     66.48     0  03:02      0.22    0.10    0.41
  YS02001904YS02001907 CONDUIT     66.68     0  03:02      0.14    0.02    0.57
  YS02001887YS02001890 CONDUIT     66.92     0  02:55      0.17    0.11    0.50
  YS02001652YS02001649 CONDUIT    107.45     0  04:39      0.26    0.05    1.00
  YS02001655YS02001652 CONDUIT     62.06     0  04:13      0.91    0.03    0.86
  YS02001658YS02001655 CONDUIT     81.25     0  04:45      1.08    0.03    0.61
  YS02001661YS02001658 CONDUIT     47.42     0  02:55      1.22    0.02    0.29
  YS02001664YS02001661 CONDUIT     47.42     0  02:55      0.84    0.01    0.12
  YSB1154YSB6556       CONDUIT      7.08     0  02:22      0.19    0.01    0.39
  YSB1174YSB1171       CONDUIT      6.62     0  02:15      0.04    0.01    0.51
  YSB1171HS02004479    CONDUIT     13.08     0  02:25      0.54    0.01    0.39
  HS02004881HS02006253 CONDUIT     21.00     0  02:24      1.31    0.00    0.21
  YS02001793JiankangQianchi CONDUIT    383.57     0  03:39      7.26    0.03    1.00
  YS02001757CaochengTiaoxuchi CONDUIT    284.68     0  03:00      0.74    0.13    0.80
  WSF200WS02003060     CONDUIT    369.30     0  03:03      1.93    0.08    0.24
  1                    CONDUIT    482.75     0  04:05      2.72    0.17    0.28
  2                    CONDUIT     40.02     0  02:51      3.73    0.10    0.21
  3                    CONDUIT    477.90     0  03:40      9.73    0.76    0.66
  4                    CONDUIT      0.00     0  00:00      0.00    0.00    0.00
  CC-Pump-1            PUMP       199.92     0  04:20              1.00
  CC-Pump-2            PUMP       200.00     0  03:30              1.00
  JK-Pump-1            PUMP       300.00     0  07:30              1.00
  JK-Pump-2            PUMP       300.00     0  04:20              1.00
  XR-Pump-1            PUMP        95.00     0  00:00              1.00
  XR-Pump-2            PUMP        94.98     0  02:40              1.00
  XR-Pump-3            PUMP        94.99     0  04:00              1.00
  XR-Pump-4            PUMP        95.00     0  03:20              1.00
  
  
  ***************************
  Flow Classification Summary
  ***************************
  
  -------------------------------------------------------------------------------------
                      Adjusted    ---------- Fraction of Time in Flow Class ---------- 
                       /Actual         Up    Down  Sub   Sup   Up    Down  Norm  Inlet 
  Conduit               Length    Dry  Dry   Dry   Crit  Crit  Crit  Crit  Ltd   Ctrl  
  -------------------------------------------------------------------------------------
  WS02003066WSF200        1.00   0.10  0.00  0.00  0.00  0.90  0.00  0.00  0.77  0.00
  WS02006287WS02006284    1.00   0.03  0.06  0.00  0.69  0.21  0.00  0.00  0.81  0.00
  WS02006284WS02006280    1.00   0.05  0.00  0.00  0.00  0.00  0.00  0.95  0.00  0.00
  WS02006280WS02006229    1.00   0.05  0.00  0.00  0.00  0.00  0.00  0.95  0.00  0.00
  WS02006229WS02006228    1.00   0.00  0.00  0.00  1.00  0.00  0.00  0.00  0.00  0.00
  WS02006256WS02006235    1.00   0.04  0.00  0.00  0.96  0.00  0.00  0.00  0.00  0.00
  WS02006253WS02006251    1.00   0.02  0.02  0.00  0.95  0.00  0.01  0.00  0.00  0.00
  WS02006252WS02006251    1.00   0.15  0.00  0.00  0.00  0.00  0.85  0.00  0.00  0.00
  WS02006251WS02006249    1.00   0.00  0.00  0.00  1.00  0.00  0.00  0.00  0.74  0.00
  WS02006249WS02006248    1.00   0.00  0.01  0.00  0.47  0.00  0.53  0.00  0.00  0.00
  WS02006248WS02006247    1.00   0.01  0.00  0.00  0.97  0.00  0.00  0.02  0.65  0.00
  WS02006247WS02006245    1.00   0.01  0.00  0.00  0.95  0.00  0.00  0.04  0.00  0.00
  WS02006245WS02006243    1.00   0.01  0.00  0.00  0.88  0.00  0.00  0.10  0.04  0.00
  WS02006243WS02006242    1.00   0.01  0.00  0.00  0.95  0.00  0.00  0.04  0.48  0.00
  WS02006242WS02006240    1.00   0.02  0.03  0.00  0.94  0.00  0.01  0.00  0.00  0.00
  WS02006240WS02006239    1.00   0.04  0.00  0.00  0.78  0.00  0.00  0.18  0.03  0.00
  WS02006239WS02006238    1.00   0.04  0.00  0.00  0.96  0.00  0.00  0.00  0.19  0.00
  WS02006238WS02006235    1.00   0.04  0.00  0.00  0.96  0.00  0.00  0.00  0.00  0.00
  WS02006235WS02006234    1.00   0.04  0.00  0.00  0.83  0.00  0.13  0.00  0.00  0.00
  WS02006234WS02006232    1.00   0.04  0.00  0.00  0.96  0.00  0.00  0.00  0.13  0.00
  WS02006232WS02006231    1.00   0.04  0.00  0.00  0.95  0.00  0.01  0.00  0.00  0.00
  WS02006231WS02006230    1.00   0.04  0.00  0.00  0.11  0.00  0.84  0.00  0.00  0.00
  WS02006230WS02006229    1.00   0.00  0.00  0.00  0.99  0.00  0.00  0.01  0.01  0.00
  WS02006228WS02006109    1.00   0.00  0.00  0.00  1.00  0.00  0.00  0.00  0.00  0.00
  WS02006116WS02004401    1.00   0.04  0.00  0.00  0.96  0.00  0.00  0.00  0.00  0.00
  WS02006115WS02006116    1.00   0.03  0.00  0.00  0.92  0.00  0.00  0.05  0.00  0.00
  WS02006113WS02006111    1.00   0.02  0.00  0.00  0.01  0.97  0.00  0.00  0.15  0.00
  WS02006112WS02006115    1.00   0.02  0.01  0.00  0.96  0.00  0.00  0.00  0.00  0.00
  WS02006111WS02006112    1.00   0.02  0.00  0.00  0.97  0.00  0.00  0.00  0.92  0.00
  WS02006110WS02006113    1.00   0.00  0.02  0.00  0.98  0.00  0.00  0.00  0.00  0.00
  WS02006109WS02006110    1.00   0.00  0.00  0.00  0.99  0.00  0.00  0.00  0.00  0.00
  WS02004411WS02004412    1.00   0.09  0.00  0.00  0.91  0.00  0.00  0.00  0.00  0.00
  WS02004401WS02004402    1.00   0.04  0.00  0.00  0.96  0.00  0.00  0.00  0.02  0.00
  WS02004413WS02003067    1.00   0.09  0.01  0.00  0.00  0.00  0.90  0.00  0.00  0.00
  WS02004412WS02004413    1.00   0.09  0.00  0.00  0.91  0.00  0.00  0.00  0.01  0.00
  WS02004410WS02004411    1.00   0.09  0.00  0.00  0.91  0.00  0.00  0.00  0.00  0.00
  WS02004409WS02004410    1.00   0.09  0.00  0.00  0.91  0.00  0.00  0.00  0.00  0.00
  WS02004407WS02004409    1.00   0.09  0.00  0.00  0.91  0.00  0.00  0.00  0.82  0.00
  WS02004406WS02004407    1.00   0.00  0.09  0.00  0.91  0.00  0.00  0.00  0.00  0.00
  WS02004405WS02004406    1.00   0.00  0.00  0.00  1.00  0.00  0.00  0.00  0.04  0.00
  WS02004404WS02004405    1.00   0.00  0.00  0.00  1.00  0.00  0.00  0.00  0.00  0.00
  WS02004403WS02004404    1.00   0.00  0.04  0.00  0.96  0.00  0.00  0.00  0.04  0.00
  WS02004402WS02004403    1.00   0.04  0.00  0.00  0.96  0.00  0.00  0.00  0.00  0.00
  WS02004139WS02001211    1.00   0.00  0.00  0.00  1.00  0.00  0.00  0.00  0.00  0.00
  WS02004138WS02004139    1.00   0.00  0.00  0.00  1.00  0.00  0.00  0.00  1.00  0.00
  WS02003067WS02003066    1.00   0.10  0.00  0.00  0.90  0.00  0.00  0.00  0.00  0.00
  WS02001213WS02003059    1.00   0.00  0.00  0.00  1.00  0.00  0.00  0.00  0.00  0.00
  WS02001212WS02001213    1.00   0.00  0.00  0.00  0.25  0.00  0.75  0.00  0.00  0.00
  WS02001211WS02001212    1.00   0.00  0.00  0.00  1.00  0.00  0.00  0.00  0.00  0.00
  WS02003072WS02003073    1.00   0.00  0.00  0.00  0.00  0.00  0.00  1.00  0.00  0.00
  WS02003069WS02003072    1.00   0.00  0.00  0.00  1.00  0.00  0.00  0.00  0.89  0.00
  WS02003060WS02003069    1.00   0.00  0.00  0.00  0.96  0.04  0.00  0.00  0.60  0.00
  WS02003059WS02003060    1.00   0.00  0.00  0.00  1.00  0.00  0.00  0.00  0.02  0.00
  HS02004901HS02004770    1.00   0.04  0.00  0.00  0.96  0.00  0.00  0.00  0.03  0.00
  HS02004876HS02004881    1.00   0.01  0.00  0.00  0.99  0.00  0.00  0.00  0.00  0.00
  HS02004870HS02004876    1.00   0.00  0.00  0.00  1.00  0.00  0.00  0.00  0.95  0.00
  HS02004842HS02004848    1.00   0.00  0.05  0.00  0.95  0.00  0.00  0.00  0.71  0.00
  HS02004837HS02004842    1.00   0.00  0.00  0.00  1.00  0.00  0.00  0.00  0.11  0.00
  HS02004830HS02004837    1.00   0.00  0.00  0.00  1.00  0.00  0.00  0.00  0.99  0.00
  HS02004824HS02004830    1.00   0.00  0.00  0.00  1.00  0.00  0.00  0.00  0.00  0.00
  HS02004817HS02004824    1.00   0.00  0.00  0.00  1.00  0.00  0.00  0.00  1.00  0.00
  HS02004770HS02004777    1.00   0.00  0.04  0.00  0.96  0.00  0.00  0.00  0.07  0.00
  HS02004799HS02004480    1.00   0.00  0.01  0.00  0.90  0.00  0.09  0.00  0.00  0.00
  HS02004792HS02004799    1.00   0.00  0.00  0.00  1.00  0.00  0.00  0.00  0.98  0.00
  HS02004788HS02004792    1.00   0.00  0.00  0.00  1.00  0.00  0.00  0.00  0.98  0.00
  HS02004785HS02004788    1.00   0.00  0.00  0.00  1.00  0.00  0.00  0.00  0.00  0.00
  HS02004777HS02004785    1.00   0.00  0.00  0.00  1.00  0.00  0.00  0.00  0.21  0.00
  HS02004480HS02004478    1.00   0.07  0.00  0.00  0.73  0.00  0.00  0.20  0.00  0.00
  HS02004479HS02004480    1.00   0.01  0.00  0.00  0.99  0.00  0.00  0.00  0.16  0.00
  HS02004862HS02004870    1.00   0.00  0.00  0.00  1.00  0.00  0.00  0.00  0.06  0.00
  HS02004848HS02004852    1.00   0.05  0.00  0.00  0.95  0.00  0.00  0.00  0.69  0.00
  HS02004856HS02004862    1.00   0.00  0.12  0.00  0.88  0.00  0.00  0.00  0.73  0.00
  HS02004852HS02004856    1.00   0.04  0.05  0.00  0.91  0.00  0.00  0.00  0.83  0.00
  HS02004802HS02004478    1.00   0.05  0.04  0.00  0.91  0.00  0.00  0.00  0.01  0.00
  HS02004478WS02006287    1.00   0.09  0.00  0.00  0.91  0.00  0.00  0.00  0.81  0.00
  HS02004817HS02004807    1.00   0.00  0.04  0.00  0.96  0.00  0.00  0.00  0.00  0.00
  HS02004807HS02004802    1.00   0.04  0.00  0.00  0.93  0.00  0.00  0.02  0.01  0.00
  YS02001759YS02001757    1.00   0.00  0.00  0.00  1.00  0.00  0.00  0.00  0.17  0.00
  YS02001762YS02001759    1.00   0.00  0.00  0.00  1.00  0.00  0.00  0.00  0.05  0.00
  YS02001765YS02001762    1.00   0.00  0.00  0.00  1.00  0.00  0.00  0.00  0.23  0.00
  YS02001770YS02001767    1.00   0.00  0.00  0.00  1.00  0.00  0.00  0.00  0.00  0.00
  YS02001774YS02001770    1.00   0.00  0.09  0.00  0.91  0.00  0.00  0.00  0.07  0.00
  YS02001779YS02001774    1.00   0.00  0.00  0.00  1.00  0.00  0.00  0.00  0.28  0.00
  YS02001649YS02001757    1.00   0.00  0.00  0.00  1.00  0.00  0.00  0.00  0.19  0.00
  YS02001767YS02001765    1.00   0.00  0.00  0.00  1.00  0.00  0.00  0.00  0.01  0.00
  YS02006561YS02001783    1.00   0.12  0.00  0.00  0.10  0.78  0.00  0.00  0.72  0.00
  YS02001783YS02001784    1.00   0.00  0.12  0.00  0.88  0.00  0.00  0.00  0.09  0.00
  YS02001784YS02001785    1.00   0.00  0.00  0.00  1.00  0.00  0.00  0.00  0.26  0.00
  YS02001788YS02001790    1.00   0.00  0.00  0.00  0.32  0.68  0.00  0.00  0.87  0.00
  YS02001790YS02001791    1.00   0.00  0.00  0.00  0.23  0.77  0.00  0.00  0.30  0.00
  YS02001791YS02001793    1.00   0.00  0.00  0.00  0.35  0.65  0.00  0.00  0.10  0.00
  YS02001910YS02001907    1.00   0.00  0.00  0.00  0.99  0.00  0.00  0.01  0.13  0.00
  YS02001786YS02001788    1.00   0.00  0.00  0.00  0.27  0.73  0.00  0.00  0.00  0.00
  YS02001915YS02001910    1.00   0.00  0.00  0.00  1.00  0.00  0.00  0.00  0.25  0.00
  YS02001918YS02001915    1.00   0.00  0.00  0.00  0.99  0.01  0.00  0.00  0.81  0.00
  YS02001923YS02001920    1.00   0.00  0.00  0.00  1.00  0.00  0.00  0.00  1.00  0.00
  YS02001926YS02001923    1.00   0.00  0.02  0.00  0.00  0.00  0.98  0.00  0.00  0.00
  YS02001929YS02001926    1.00   0.00  0.04  0.00  0.96  0.00  0.00  0.00  0.87  0.00
  YS02001920YS02001918    1.00   0.00  0.00  0.00  1.00  0.00  0.00  0.00  0.00  0.00
  YS02001629YS02163301    1.00   0.11  0.01  0.00  0.89  0.00  0.00  0.00  0.00  0.00
  YS02001619YS02001622    1.00   0.04  0.00  0.00  0.96  0.00  0.00  0.00  0.00  0.00
  YS02001622YS02001625    1.00   0.04  0.00  0.00  0.96  0.00  0.00  0.00  0.14  0.00
  YS02001625YS02001629    1.00   0.05  0.08  0.00  0.85  0.00  0.02  0.00  0.00  0.00
  YS02163301YS02001633    1.00   0.00  0.11  0.00  0.89  0.00  0.00  0.00  0.00  0.00
  YS02163601YS02164001    1.00   0.00  0.03  0.00  0.97  0.00  0.00  0.00  0.00  0.00
  YS02164001YS02001641    1.00   0.00  0.02  0.00  0.97  0.00  0.00  0.00  0.07  0.00
  YS02001641YS02001644    1.00   0.00  0.00  0.00  1.00  0.00  0.00  0.00  0.00  0.00
  YS02001647YS02001649    1.00   0.00  0.12  0.00  0.88  0.00  0.00  0.00  0.01  0.00
  YS02006553YS02006556    1.00   0.00  0.00  0.00  1.00  0.00  0.00  0.00  0.03  0.00
  YS02006556YS02006558    1.00   0.00  0.00  0.00  1.00  0.00  0.00  0.00  0.00  0.00
  YSB6556YSB1171          1.00   0.01  0.03  0.00  0.96  0.00  0.00  0.00  0.00  0.00
  YS02001907YS02006553    1.00   0.00  0.01  0.00  0.99  0.00  0.00  0.00  0.00  0.00
  YS02006558YS02006561    1.00   0.12  0.00  0.00  0.00  0.88  0.00  0.00  0.71  0.00
  YS02001633YS02163601    1.00   0.00  0.00  0.00  1.00  0.00  0.00  0.00  0.20  0.00
  YS02001644YS02001647    1.00   0.00  0.12  0.00  0.88  0.00  0.00  0.00  0.00  0.00
  YS02001745YS02001748    1.00   0.00  0.00  0.00  0.42  0.23  0.00  0.36  0.43  0.00
  YS02001748YS02001751    1.00   0.00  0.00  0.00  0.96  0.04  0.00  0.00  0.28  0.00
  YS02001751YS02001754    1.00   0.00  0.00  0.00  0.87  0.00  0.00  0.13  0.03  0.00
  YS02001754YS02001757    1.00   0.00  0.00  0.00  1.00  0.00  0.00  0.00  0.27  0.00
  YS02001882YS02001884    1.00   0.10  0.01  0.00  0.89  0.00  0.00  0.00  0.00  0.00
  YS02001884YS02001887    1.00   0.02  0.02  0.00  0.96  0.00  0.00  0.00  0.00  0.00
  YS02001890YS02001895    1.00   0.00  0.11  0.00  0.89  0.00  0.00  0.00  0.00  0.00
  YS02001895YS02001898    1.00   0.11  0.00  0.00  0.87  0.00  0.01  0.00  0.00  0.00
  YS02001898YS02001901    1.00   0.11  0.01  0.00  0.89  0.00  0.00  0.00  0.02  0.00
  YS02001901YS02001904    1.00   0.11  0.00  0.00  0.89  0.00  0.00  0.00  0.00  0.00
  YS02001904YS02001907    1.00   0.00  0.10  0.00  0.89  0.00  0.00  0.00  0.00  0.00
  YS02001887YS02001890    1.00   0.00  0.00  0.00  0.99  0.00  0.01  0.00  0.00  0.00
  YS02001652YS02001649    1.00   0.00  0.00  0.00  1.00  0.00  0.00  0.00  0.27  0.00
  YS02001655YS02001652    1.00   0.00  0.00  0.00  0.87  0.00  0.00  0.13  0.03  0.00
  YS02001658YS02001655    1.00   0.00  0.09  0.00  0.86  0.05  0.00  0.00  0.25  0.00
  YS02001661YS02001658    1.00   0.09  0.00  0.00  0.47  0.44  0.00  0.00  0.57  0.00
  YS02001664YS02001661    1.00   0.04  0.00  0.00  0.96  0.00  0.00  0.00  0.86  0.00
  YSB1154YSB6556          1.00   0.04  0.00  0.00  0.96  0.00  0.00  0.00  0.02  0.00
  YSB1174YSB1171          1.00   0.02  0.01  0.00  0.97  0.00  0.00  0.00  0.00  0.00
  YSB1171HS02004479       1.00   0.01  0.00  0.00  0.98  0.00  0.00  0.00  0.13  0.00
  HS02004881HS02006253    1.00   0.02  0.00  0.00  0.29  0.02  0.00  0.68  0.13  0.00
  YS02001793JiankangQianchi    1.00   0.00  0.00  0.00  0.94  0.05  0.00  0.00  0.59  0.00
  YS02001757CaochengTiaoxuchi    1.00   0.00  0.15  0.00  0.85  0.00  0.00  0.00  0.00  0.00
  WSF200WS02003060        1.00   0.00  0.10  0.00  0.56  0.34  0.00  0.00  0.55  0.00
  1                       1.00   0.00  0.00  0.00  0.00  1.00  0.00  0.00  0.30  0.00
  2                       1.00   0.98  0.00  0.00  0.00  0.02  0.00  0.00  0.01  0.00
  3                       1.00   0.52  0.00  0.00  0.00  0.48  0.00  0.00  0.20  0.00
  4                       1.00   1.00  0.00  0.00  0.00  0.00  0.00  0.00  0.00  0.00
  
  
  *************************
  Conduit Surcharge Summary
  *************************
  
  ----------------------------------------------------------------------------
                                                           Hours        Hours 
                         --------- Hours Full --------   Above Full   Capacity
  Conduit                Both Ends  Upstream  Dnstream   Normal Flow   Limited
  ----------------------------------------------------------------------------
  WS02006229WS02006228        0.01      0.01      0.01      0.45         0.01
  WS02006256WS02006235        2.85      2.85      5.14      2.01         0.01
  WS02006252WS02006251        0.05      0.05      0.13      0.11         0.01
  WS02006251WS02006249        0.01      0.01      0.01      0.05         0.01
  WS02006249WS02006248        0.01      0.01      0.01      0.77         0.01
  WS02006247WS02006245        0.01      0.01      0.01      1.12         0.01
  WS02006245WS02006243        0.01      0.01      0.01      0.02         0.01
  WS02006242WS02006240        0.01      0.01      0.01      0.13         0.01
  WS02006240WS02006239        0.01      0.01      0.01      0.03         0.01
  WS02006239WS02006238        0.01      0.01      0.01      0.04         0.01
  WS02006235WS02006234        0.01      0.01      0.01      2.79         0.01
  WS02006231WS02006230        0.01      0.01      0.01      3.02         0.01
  WS02006230WS02006229        0.12      0.36      0.12      3.39         0.12
  WS02006228WS02006109        0.01      0.08      0.01      1.24         0.01
  WS02006111WS02006112        0.01      0.01      0.46      0.01         0.01
  WS02006110WS02006113        0.01      0.01      0.06      0.01         0.01
  WS02006109WS02006110        0.01      0.01      0.08      0.01         0.01
  WS02004404WS02004405        0.01      0.01      0.01      3.08         0.01
  WS02003072WS02003073        0.01      0.01      0.01      0.24         0.01
  YS02001759YS02001757        2.65      2.65      3.41      0.01         0.01
  YS02001762YS02001759        2.38      2.38      2.65      0.01         0.01
  YS02001765YS02001762        1.97      1.97      2.38      0.01         0.01
  YS02001770YS02001767        1.58      1.58      1.64      0.01         0.01
  YS02001774YS02001770        1.31      1.31      2.21      0.01         0.01
  YS02001779YS02001774        0.01      0.01      2.21      0.01         0.01
  YS02001649YS02001757        2.45      2.45      3.41      0.01         0.01
  YS02001767YS02001765        1.64      1.64      1.97      0.01         0.01
  YS02001788YS02001790        0.01      0.01      0.40      0.01         0.01
  YS02001790YS02001791        0.40      0.40      0.68      0.01         0.01
  YS02001791YS02001793        0.68      0.68      1.53      0.01         0.01
  YS02001629YS02163301        1.06      1.06      1.38      0.01         0.01
  YS02163301YS02001633        1.38      1.38      1.95      0.01         0.01
  YS02163601YS02164001        1.91      1.91      2.40      0.01         0.01
  YS02164001YS02001641        1.91      1.91      2.08      0.01         0.01
  YS02001641YS02001644        2.08      2.08      2.12      0.01         0.01
  YS02001647YS02001649        0.01      0.01      2.45      0.01         0.01
  YS02001633YS02163601        1.78      1.78      2.40      0.01         0.01
  YS02001644YS02001647        0.01      0.01      2.12      0.01         0.01
  YS02001754YS02001757        0.01      0.01      3.41      0.01         0.01
  YS02001652YS02001649        0.07      0.07      2.45      0.01         0.01
  YS02001793JiankangQianchi        1.32      1.32      6.15      0.01         0.01
  YS02001757CaochengTiaoxuchi        0.01      0.01      3.41      0.01         0.01
  
  
  ***************
  Pumping Summary
  ***************
  
  ---------------------------------------------------------------------------------------------------------
                                                  Min       Avg       Max     Total     Power    % Time Off
                        Percent   Number of      Flow      Flow      Flow    Volume     Usage    Pump Curve
  Pump                 Utilized   Start-Ups       LPS       LPS       LPS  10^6 ltr     Kw-hr    Low   High
  ---------------------------------------------------------------------------------------------------------
  CC-Pump-1                8.50           2      0.00    104.83    199.92     0.240      0.96    0.0  100.0
  CC-Pump-2               19.32           4      0.00    144.38    200.00     0.720      2.65    0.0   78.0
  JK-Pump-1               19.15           4      0.00    181.10    300.00     0.878     10.37    0.0    0.0
  JK-Pump-2               31.88           6      0.00    169.08    300.00     1.088     10.85    0.0    0.0
  XR-Pump-1               76.60           8      0.00     60.41     95.00     1.368      6.99    0.0    0.0
  XR-Pump-2                8.50           2      0.00     51.27     94.98     0.114      0.51    0.0    0.0
  XR-Pump-3                8.51           2      0.00     50.03     94.99     0.114      0.51    0.0    0.0
  XR-Pump-4               53.17           9      0.00     59.18     95.00     0.855      3.99    0.0    0.0
  

  Analysis begun on:  Wed Jan  5 21:41:10 2022
  Analysis ended on:  Wed Jan  5 21:41:11 2022
  Total elapsed time: 00:00:01