
  EPA STORM WATER MANAGEMENT MODEL - VERSION 5.1 (Build 5.3.0.dev0)
  --------------------------------------------------------------

  WARNING 04: minimum elevation drop used for Conduit WS02004404WS02004405
  WARNING 03: negative offset ignored for Link YS02001904YS02001907
  
  *********************************************************
  NOTE: The summary statistics displayed in this report are
  based on results found at every computational time step,  
  not just on results from each reporting time step.
  *********************************************************
  
  ****************
  Analysis Options
  ****************
  Flow Units ............... LPS
  Process Models:
    Rainfall/Runoff ........ YES
    RDII ................... NO
    Snowmelt ............... NO
    Groundwater ............ NO
    Flow Routing ........... YES
    Ponding Allowed ........ NO
    Water Quality .......... NO
  Infiltration Method ...... HORTON
  Flow Routing Method ...... DYNWAVE
  Surcharge Method ......... EXTRAN
  Starting Date ............ 08/28/2015 08:00:00
  Ending Date .............. 08/28/2015 15:50:00
  Antecedent Dry Days ...... 8.0
  Report Time Step ......... 00:01:00
  Wet Time Step ............ 00:01:00
  Dry Time Step ............ 00:01:00
  Routing Time Step ........ 5.00 sec
  Variable Time Step ....... YES
  Maximum Trials ........... 8
  Number of Threads ........ 4
  Head Tolerance ........... 0.001500 m
  
  
  **************************        Volume         Depth
  Runoff Quantity Continuity     hectare-m            mm
  **************************     ---------       -------
  Total Precipitation ......         2.005         4.390
  Evaporation Loss .........         0.000         0.000
  Infiltration Loss ........         0.496         1.086
  Surface Runoff ...........         0.697         1.526
  Final Storage ............         0.812         1.779
  Continuity Error (%) .....        -0.017
  
  
  **************************        Volume        Volume
  Flow Routing Continuity        hectare-m      10^6 ltr
  **************************     ---------     ---------
  Dry Weather Inflow .......         0.616         6.165
  Wet Weather Inflow .......         0.697         6.966
  Groundwater Inflow .......         0.000         0.000
  RDII Inflow ..............         0.000         0.000
  External Inflow ..........         0.102         1.024
  External Outflow .........         0.643         6.431
  Flooding Loss ............         0.474         4.740
  Evaporation Loss .........         0.000         0.000
  Exfiltration Loss ........         0.000         0.000
  Initial Stored Volume ....         0.076         0.761
  Final Stored Volume ......         0.376         3.759
  Continuity Error (%) .....        -0.099
  
  
  *************************
  Highest Continuity Errors
  *************************
  Node HS02004842 (35.56%)
  Node YS02001884 (29.79%)
  Node YS02001774 (18.47%)
  Node YSB1171 (9.96%)
  Node HS02004901 (8.24%)
  
  
  ***************************
  Time-Step Critical Elements
  ***************************
  Link WS02006252WS02006251 (68.72%)
  Link WS02006280WS02006229 (10.55%)
  Link 3 (10.16%)
  Link WS02006238WS02006235 (3.31%)
  
  
  ********************************
  Highest Flow Instability Indexes
  ********************************
  Link WS02006113WS02006111 (48)
  Link WS02006111WS02006112 (11)
  Link YS02001754YS02001757 (3)
  Link YS02001652YS02001649 (3)
  Link YS02001793JiankangQianchi (3)
  
  
  *************************
  Routing Time Step Summary
  *************************
  Minimum Time Step           :     0.50 sec
  Average Time Step           :     1.41 sec
  Maximum Time Step           :     5.00 sec
  Percent in Steady State     :    -0.00
  Average Iterations per Step :     2.12
  Percent Not Converging      :     0.83
  
  
  ***************************
  Subcatchment Runoff Summary
  ***************************
  
  ------------------------------------------------------------------------------------------------------------------------------
                            Total      Total      Total      Total     Imperv       Perv      Total       Total     Peak  Runoff
                           Precip      Runon       Evap      Infil     Runoff     Runoff     Runoff      Runoff   Runoff   Coeff
  Subcatchment                 mm         mm         mm         mm         mm         mm         mm    10^6 ltr      LPS
  ------------------------------------------------------------------------------------------------------------------------------
  sub0                       4.39       0.00       0.00       0.31       2.82       0.00       2.82        0.00     0.94   0.642
  sub1                       4.39       0.00       0.00       0.48       2.65       0.00       2.65        0.02     4.66   0.605
  sub2                       4.39       0.00       0.00       1.62       1.86       0.00       1.86        0.02     4.07   0.424
  sub3                       4.39       0.00       0.00       1.62       1.83       0.00       1.83        0.04     8.25   0.417
  sub4                       4.39       0.00       0.00       0.48       2.53       0.00       2.53        0.05     9.12   0.576
  sub5                       4.39       0.00       0.00       0.31       2.77       0.00       2.77        0.03     8.28   0.632
  sub7                       4.39       0.00       0.00       0.40       2.74       0.00       2.74        0.01     2.98   0.624
  sub8                       4.39       0.00       0.00       0.40       2.73       0.00       2.73        0.02     5.22   0.622
  sub9                       4.39       0.00       0.00       0.40       2.73       0.00       2.73        0.01     3.86   0.622
  sub10                      4.39       0.00       0.00       0.35       2.75       0.00       2.75        0.03     8.30   0.626
  sub11                      4.39       0.00       0.00       0.35       2.77       0.00       2.77        0.03     9.85   0.630
  sub12                      4.39       0.00       0.00       0.57       2.63       0.00       2.63        0.02     8.52   0.599
  sub14                      4.39       0.00       0.00       0.40       2.73       0.00       2.73        0.03     7.54   0.622
  sub15                      4.39       0.00       0.00       1.32       2.10       0.00       2.10        0.04    10.20   0.477
  sub16                      4.39       0.00       0.00       1.45       2.02       0.00       2.02        0.02     7.45   0.461
  sub17                      4.39       0.00       0.00       1.40       2.05       0.00       2.05        0.02     5.99   0.467
  sub22                      4.39       0.00       0.00       1.89       1.71       0.00       1.71        0.11    33.77   0.391
  sub23                      4.39       0.00       0.00       1.62       1.90       0.00       1.90        0.09    28.83   0.432
  sub60                      4.39       0.00       0.00       0.53       1.67       0.00       1.67        0.51    42.88   0.380
  sub61                      4.39       0.00       0.00       0.75       1.83       0.00       1.83        0.56    54.81   0.417
  sub62                      4.39       0.00       0.00       0.35       1.95       0.00       1.95        0.60    55.71   0.444
  sub63                      4.39       0.00       0.00       1.27       1.65       0.00       1.65        0.50    51.54   0.375
  sub64                      4.39       0.00       0.00       0.66       1.59       0.00       1.59        0.48    40.66   0.362
  sub65                      4.39       0.00       0.00       0.57       1.61       0.00       1.61        0.49    41.19   0.366
  sub66                      4.39       0.00       0.00       1.27       1.40       0.00       1.40        0.43    37.51   0.319
  sub67                      4.39       0.00       0.00       0.35       2.19       0.00       2.19        0.68    72.79   0.500
  sub68                      4.39       0.00       0.00       0.61       1.96       0.00       1.96        0.60    60.89   0.447
  sub69                      4.39       0.00       0.00       0.66       2.17       0.00       2.17        0.51    61.77   0.494
  sub70                      4.39       2.21       0.00       2.25       2.52       0.00       2.52        0.58    45.67   0.381
  sub71                      4.39       0.00       0.00       0.35       1.85       0.00       1.85        0.44    38.63   0.420
  sub72                      4.39       0.00       0.00       0.31       1.23       0.00       1.23        0.25    17.56   0.280
  sub73                      4.39       2.45       0.00       2.33       2.46       0.00       2.46        0.58    38.88   0.360
  sub74                      4.39       0.00       0.00       3.29       0.66       0.00       0.66        0.26    34.75   0.150
  
  
  ******************
  Node Depth Summary
  ******************
  
  ---------------------------------------------------------------------------------
                                 Average  Maximum  Maximum  Time of Max    Reported
                                   Depth    Depth      HGL   Occurrence   Max Depth
  Node                 Type       Meters   Meters   Meters  days hr:min      Meters
  ---------------------------------------------------------------------------------
  WS02001211           JUNCTION     0.49     0.69     5.53     0  07:50        0.69
  WS02001212           JUNCTION     0.24     0.40     5.46     0  07:50        0.40
  WS02001213           JUNCTION     0.45     0.62     5.38     0  07:50        0.62
  WS02003069           JUNCTION     0.28     0.39     4.98     0  07:49        0.39
  WS02003072           JUNCTION     0.35     0.46     4.83     0  07:49        0.46
  WS02003073           JUNCTION     0.20     0.27     4.34     0  07:50        0.27
  WS02003060           JUNCTION     0.25     0.35     5.28     0  07:48        0.35
  WS02003066           JUNCTION     0.17     0.25     5.80     0  06:23        0.25
  WS02003059           JUNCTION     0.52     0.67     5.36     0  07:49        0.67
  WS02003067           JUNCTION     0.45     0.61     5.93     0  06:23        0.61
  WS02004401           JUNCTION     0.52     0.69     6.69     0  06:19        0.69
  WS02004402           JUNCTION     0.55     0.73     6.69     0  06:19        0.73
  WS02004403           JUNCTION     0.58     0.75     6.68     0  06:19        0.75
  WS02004404           JUNCTION     0.65     0.83     6.68     0  06:19        0.83
  WS02004406           JUNCTION     0.67     0.83     6.66     0  06:20        0.83
  WS02004409           JUNCTION     0.33     0.51     6.28     0  06:22        0.51
  WS02004410           JUNCTION     0.35     0.53     6.25     0  06:22        0.53
  WS02004411           JUNCTION     0.38     0.55     6.23     0  06:22        0.55
  WS02004412           JUNCTION     0.40     0.57     6.21     0  06:23        0.57
  WS02004413           JUNCTION     0.56     0.73     6.20     0  06:23        0.73
  WS02004405           JUNCTION     0.65     0.82     6.67     0  06:20        0.82
  WS02006109           JUNCTION     0.58     0.77     7.39     0  06:15        0.77
  WS02006110           JUNCTION     0.60     0.77     7.36     0  06:14        0.77
  WS02006111           JUNCTION     0.15     0.23     6.94     0  06:15        0.23
  WS02006112           JUNCTION     0.67     0.86     6.75     0  06:18        0.86
  WS02006113           JUNCTION     0.23     0.36     7.25     0  06:15        0.36
  WS02006115           JUNCTION     0.40     0.58     6.72     0  06:19        0.58
  WS02006116           JUNCTION     0.49     0.66     6.70     0  06:19        0.66
  WS02006230           JUNCTION     0.50     0.74     7.49     0  06:14        0.74
  WS02006231           JUNCTION     0.31     0.50     7.63     0  06:14        0.50
  WS02006232           JUNCTION     0.43     0.66     7.69     0  06:13        0.65
  WS02006234           JUNCTION     0.33     0.57     7.73     0  06:13        0.57
  WS02006235           JUNCTION     0.36     0.61     7.77     0  06:13        0.61
  WS02006238           JUNCTION     0.39     0.64     7.79     0  06:13        0.64
  WS02006240           JUNCTION     0.30     0.58     7.88     0  06:12        0.58
  WS02006242           JUNCTION     0.35     0.67     7.94     0  06:12        0.67
  WS02006243           JUNCTION     0.25     0.56     7.98     0  06:12        0.56
  WS02006245           JUNCTION     0.25     0.55     8.04     0  06:11        0.55
  WS02006247           JUNCTION     0.27     0.58     8.08     0  06:11        0.58
  WS02006248           JUNCTION     0.23     0.53     8.12     0  06:11        0.53
  WS02006249           JUNCTION     0.27     0.57     8.17     0  06:10        0.57
  WS02006239           JUNCTION     0.34     0.62     7.83     0  06:13        0.62
  WS02006251           JUNCTION     0.26     0.59     8.26     0  06:10        0.59
  WS02006252           JUNCTION     0.24     0.58     8.83     0  06:10        0.58
  WS02006253           JUNCTION     0.28     0.62     8.26     0  06:10        0.61
  WS02006256           JUNCTION     0.71     1.11     8.04     0  04:00        1.11
  WS02004138           JUNCTION     0.08     0.17     7.42     0  07:45        0.17
  WS02004407           JUNCTION     0.15     0.23     6.55     0  06:20        0.23
  WS02006228           JUNCTION     0.56     0.77     7.42     0  06:15        0.77
  WS02006229           JUNCTION     0.53     0.74     7.43     0  06:15        0.74
  WS02006280           JUNCTION     0.05     0.12     8.39     0  02:22        0.12
  WS02006284           JUNCTION     0.33     0.44     8.84     0  02:22        0.44
  WS02006287           JUNCTION     0.06     0.17     9.12     0  02:22        0.17
  WSF200               JUNCTION     0.14     0.23     5.46     0  06:23        0.23
  HS02004901           JUNCTION     0.10     0.19    10.02     0  02:20        0.19
  HS02004881           JUNCTION     0.00     0.02     9.05     0  02:21        0.02
  HS02004876           JUNCTION     0.03     0.09     9.12     0  02:21        0.09
  HS02004870           JUNCTION     0.01     0.03     9.32     0  02:21        0.03
  HS02004862           JUNCTION     0.01     0.03     9.42     0  02:22        0.03
  HS02004856           JUNCTION     0.07     0.09     9.52     0  02:21        0.09
  HS02004852           JUNCTION     0.00     0.02     9.53     0  02:22        0.02
  HS02004848           JUNCTION     0.00     0.02     9.62     0  02:20        0.02
  HS02004842           JUNCTION     0.32     0.35     9.62     0  02:19        0.35
  HS02004837           JUNCTION     0.02     0.04     9.62     0  02:19        0.04
  HS02004830           JUNCTION     0.03     0.05     9.52     0  02:20        0.05
  HS02004824           JUNCTION     0.02     0.03     9.43     0  02:23        0.03
  HS02004817           JUNCTION     0.41     0.49     9.34     0  02:22        0.49
  HS02004807           JUNCTION     0.10     0.17     9.34     0  02:22        0.17
  HS02004802           JUNCTION     0.14     0.21     9.34     0  02:22        0.21
  HS02004799           JUNCTION     0.09     0.21     9.42     0  02:20        0.21
  HS02004792           JUNCTION     0.02     0.07     9.60     0  02:19        0.07
  HS02004788           JUNCTION     0.01     0.05     9.95     0  02:21        0.05
  HS02004785           JUNCTION     0.03     0.11    10.01     0  02:21        0.11
  HS02004777           JUNCTION     0.12     0.22    10.02     0  02:20        0.22
  HS02004770           JUNCTION     0.09     0.19    10.02     0  02:20        0.19
  HS02004480           JUNCTION     0.05     0.16     9.40     0  02:21        0.16
  HS02004479           JUNCTION     0.09     0.19     9.40     0  02:21        0.19
  HS02004478           JUNCTION     0.04     0.10     9.33     0  02:22        0.10
  YS02001745           JUNCTION     0.06     0.09     7.61     0  03:01        0.09
  YS02001748           JUNCTION     0.27     0.45     7.53     0  05:44        0.45
  YS02001751           JUNCTION     0.44     0.65     7.53     0  05:45        0.64
  YS02001754           JUNCTION     0.68     0.92     7.53     0  05:44        0.92
  YS02001762           JUNCTION     0.87     1.12     7.52     0  05:45        1.12
  YS02001765           JUNCTION     0.82     1.07     7.52     0  05:45        1.07
  YS02001767           JUNCTION     0.79     1.04     7.52     0  05:45        1.04
  YS02001770           JUNCTION     0.78     1.03     7.52     0  05:46        1.03
  YS02001774           JUNCTION     0.85     1.10     7.52     0  05:45        1.10
  YS02001779           JUNCTION     0.61     0.84     7.53     0  05:45        0.84
  YS02001882           JUNCTION     0.22     0.34     7.06     0  02:56        0.34
  YS02001884           JUNCTION     0.31     0.44     7.06     0  02:54        0.44
  YS02001759           JUNCTION     0.90     1.16     7.52     0  05:45        1.16
  YS02001887           JUNCTION     0.38     0.52     7.06     0  02:55        0.52
  YS02001890           JUNCTION     0.41     0.55     7.06     0  02:56        0.55
  YS02001898           JUNCTION     0.19     0.31     7.04     0  02:58        0.31
  YS02001901           JUNCTION     0.30     0.43     7.04     0  02:57        0.43
  YS02001904           JUNCTION     0.28     0.41     7.04     0  02:57        0.41
  YS02001907           JUNCTION     0.61     0.75     7.04     0  02:58        0.75
  YS02001910           JUNCTION     0.40     0.54     7.04     0  02:56        0.54
  YS02001915           JUNCTION     0.21     0.32     7.04     0  02:57        0.32
  YS02001918           JUNCTION     0.06     0.07     7.14     0  03:04        0.07
  YS02001619           JUNCTION     0.40     0.60     7.53     0  05:45        0.60
  YS02001629           JUNCTION     0.73     0.98     7.53     0  05:46        0.98
  YS02001641           JUNCTION     0.84     1.09     7.53     0  05:47        1.09
  YS02001644           JUNCTION     0.84     1.10     7.53     0  05:47        1.09
  YS02001652           JUNCTION     0.69     0.93     7.53     0  05:46        0.93
  YS02001655           JUNCTION     0.47     0.68     7.53     0  05:47        0.68
  YS02001920           JUNCTION     0.15     0.17     7.18     0  03:03        0.17
  YS02001923           JUNCTION     0.05     0.06     7.32     0  03:02        0.06
  YS02001926           JUNCTION     0.11     0.14     7.58     0  03:02        0.14
  YS02001929           JUNCTION     0.05     0.06     7.76     0  03:01        0.06
  YS02001658           JUNCTION     0.22     0.39     7.53     0  05:47        0.38
  YS02001661           JUNCTION     0.12     0.17     7.57     0  02:47        0.17
  YS02001664           JUNCTION     0.05     0.09     8.01     0  02:47        0.09
  YS02001622           JUNCTION     0.42     0.62     7.53     0  05:44        0.62
  YS02001633           JUNCTION     0.82     1.08     7.53     0  05:44        1.07
  YS02001649           JUNCTION     0.88     1.14     7.53     0  05:45        1.13
  YS02001757           JUNCTION     1.00     1.26     7.52     0  05:44        1.26
  YS02001895           JUNCTION     0.19     0.31     7.05     0  02:56        0.31
  YS02001625           JUNCTION     0.69     0.93     7.53     0  05:45        0.92
  YS02163301           JUNCTION     0.76     1.01     7.53     0  05:44        1.01
  YS02163601           JUNCTION     0.87     1.13     7.53     0  05:44        1.13
  YS02164001           JUNCTION     0.82     1.07     7.53     0  05:47        1.07
  YS02001647           JUNCTION     0.68     0.92     7.53     0  05:45        0.91
  YSB1154              JUNCTION     0.22     0.34     9.40     0  02:21        0.34
  YSB6556              JUNCTION     0.12     0.23     9.40     0  02:20        0.23
  YSB1174              JUNCTION     0.17     0.29     9.40     0  02:21        0.29
  YSB1171              JUNCTION     0.37     0.50     9.40     0  02:21        0.50
  YS02006553           JUNCTION     0.61     0.76     7.04     0  02:57        0.76
  YS02006561           JUNCTION     0.10     0.17     6.83     0  02:57        0.17
  YS02006556           JUNCTION     0.58     0.73     7.04     0  02:57        0.73
  YS02006558           JUNCTION     0.63     0.77     7.04     0  02:57        0.77
  YS02001783           JUNCTION     0.28     0.58     6.72     0  03:00        0.58
  YS02001784           JUNCTION     0.33     0.64     6.70     0  02:59        0.62
  YS02001786           JUNCTION     0.34     0.65     6.68     0  02:59        0.64
  YS02001788           JUNCTION     0.34     0.68     6.66     0  02:59        0.68
  YS02001790           JUNCTION     0.55     1.20     6.84     0  06:21        1.00
  YS02001791           JUNCTION     0.66     1.15     6.62     0  02:59        1.15
  YS02001793           JUNCTION     1.10     1.78     6.61     0  02:59        1.77
  WS02004139           JUNCTION     0.42     0.63     5.54     0  07:50        0.63
  WSC                  OUTFALL      0.20     0.27     0.94     0  07:50        0.27
  3                    OUTFALL      0.02     0.11     6.11     0  04:00        0.11
  4                    OUTFALL      0.00     0.07     7.07     0  06:11        0.07
  5                    OUTFALL      0.00     0.00     5.00     0  00:00        0.00
  JK-storage           STORAGE      4.51     5.80     6.60     0  02:58        5.80
  CC-storage           STORAGE      0.31     0.52     7.52     0  05:46        0.52
  XR-storage           STORAGE      7.63     7.72     5.72     0  00:39        7.72
  
  
  *******************
  Node Inflow Summary
  *******************
  
  -------------------------------------------------------------------------------------------------
                                  Maximum  Maximum                  Lateral       Total        Flow
                                  Lateral    Total  Time of Max      Inflow      Inflow     Balance
                                   Inflow   Inflow   Occurrence      Volume      Volume       Error
  Node                 Type           LPS      LPS  days hr:min    10^6 ltr    10^6 ltr     Percent
  -------------------------------------------------------------------------------------------------
  WS02001211           JUNCTION      7.35   292.45     0  07:50       0.207        2.51       1.531
  WS02001212           JUNCTION      0.00   292.27     0  07:50           0        2.47       0.822
  WS02001213           JUNCTION      0.00   292.10     0  07:50           0        2.45       0.880
  WS02003069           JUNCTION      0.32   468.21     0  07:48     0.00902        6.11       0.409
  WS02003072           JUNCTION      0.00   468.15     0  07:49           0        6.09       0.519
  WS02003073           JUNCTION      1.82   469.87     0  07:50      0.0514        6.11       0.573
  WS02003060           JUNCTION     16.53   467.80     0  07:48       0.466        6.13       0.390
  WS02003066           JUNCTION      0.00   331.04     0  06:23           0        3.27       0.095
  WS02003059           JUNCTION      0.00   292.02     0  07:50           0        2.44       1.607
  WS02003067           JUNCTION      0.00   331.01     0  06:23           0        3.28       0.215
  WS02004401           JUNCTION      0.00   338.89     0  06:17           0        3.45       0.446
  WS02004402           JUNCTION      0.00   337.39     0  06:18           0        3.43       0.437
  WS02004403           JUNCTION      0.00   336.79     0  06:19           0        3.42       0.412
  WS02004404           JUNCTION      0.16   336.55     0  06:19     0.00457        3.41       0.325
  WS02004406           JUNCTION      0.00   336.36     0  06:19           0        3.38       0.806
  WS02004409           JUNCTION      0.00   336.08     0  06:20           0        3.35       0.290
  WS02004410           JUNCTION      0.00   334.51     0  06:21           0        3.34       0.355
  WS02004411           JUNCTION      0.00   333.12     0  06:21           0        3.33       0.385
  WS02004412           JUNCTION      0.00   332.08     0  06:22           0        3.32       0.442
  WS02004413           JUNCTION      0.00   331.32     0  06:22           0         3.3       0.698
  WS02004405           JUNCTION      0.04   336.46     0  06:19     0.00107         3.4       0.489
  WS02006109           JUNCTION      1.23   348.02     0  06:14      0.0347        3.51       0.311
  WS02006110           JUNCTION      0.00   347.77     0  06:14           0         3.5       0.377
  WS02006111           JUNCTION      0.00   353.32     0  06:15           0        3.48       0.059
  WS02006112           JUNCTION      5.99   347.99     0  06:15      0.0176        3.49       0.647
  WS02006113           JUNCTION      0.00   347.56     0  06:14           0        3.48       0.120
  WS02006115           JUNCTION      0.00   344.93     0  06:16           0        3.47       0.372
  WS02006116           JUNCTION      0.00   341.16     0  06:16           0        3.46       0.325
  WS02006230           JUNCTION     10.28   337.29     0  06:13        0.29        2.83       0.222
  WS02006231           JUNCTION      0.00   327.11     0  06:13           0        2.54       0.095
  WS02006232           JUNCTION      0.00   327.76     0  06:13           0        2.55       0.346
  WS02006234           JUNCTION      0.00   328.77     0  06:12           0        2.54      -0.065
  WS02006235           JUNCTION      0.00   329.52     0  06:12           0         2.6       0.276
  WS02006238           JUNCTION      0.00   329.93     0  06:12           0        1.89      -0.032
  WS02006240           JUNCTION      0.00   333.64     0  06:11           0        1.84       0.102
  WS02006242           JUNCTION      0.00   336.67     0  06:11           0        1.83       0.166
  WS02006243           JUNCTION      0.00   340.01     0  06:11           0        1.82       0.066
  WS02006245           JUNCTION      0.00   342.21     0  06:10           0        1.82       0.381
  WS02006247           JUNCTION      0.00   344.79     0  06:10           0        1.82       0.073
  WS02006248           JUNCTION      0.00   347.37     0  06:10           0        1.82      -0.179
  WS02006249           JUNCTION      0.00   392.87     0  06:10           0        1.84       0.314
  WS02006239           JUNCTION      0.00   331.04     0  06:12           0        1.87      -0.197
  WS02006251           JUNCTION      0.08   400.00     0  06:10     0.00217        1.85      -0.032
  WS02006252           JUNCTION      0.00   399.99     0  06:10           0        1.74       0.009
  WS02006253           JUNCTION      0.94    25.22     0  02:21     0.00228       0.115       0.153
  WS02006256           JUNCTION      0.00   299.97     0  03:40           0        1.09       0.151
  WS02004138           JUNCTION      0.00   285.00     0  07:40           0        2.34       0.140
  WS02004407           JUNCTION      0.00   336.16     0  06:20           0        3.35       0.128
  WS02006228           JUNCTION      0.00   346.76     0  06:14           0        3.48       0.232
  WS02006229           JUNCTION      0.00   347.04     0  06:14           0        3.49       0.270
  WS02006280           JUNCTION      0.00   135.20     0  02:22           0       0.671       0.011
  WS02006284           JUNCTION      0.10   135.20     0  02:22      0.0027       0.672       0.165
  WS02006287           JUNCTION      0.00   135.11     0  02:22           0        0.67       0.104
  WSF200               JUNCTION      0.00   331.02     0  06:23           0        3.27       0.078
  HS02004901           JUNCTION      7.45     7.45     0  02:12      0.0212      0.0213       8.978
  HS02004881           JUNCTION      2.98    24.53     0  02:21     0.00923      0.0958       0.119
  HS02004876           JUNCTION      4.66    21.83     0  02:21      0.0176      0.0871       0.599
  HS02004870           JUNCTION      5.22    17.30     0  02:20      0.0175      0.0696       0.153
  HS02004862           JUNCTION      4.27    12.48     0  02:21       0.023      0.0523       0.319
  HS02004856           JUNCTION      3.86     8.26     0  02:20      0.0131      0.0307       4.899
  HS02004852           JUNCTION      0.00     4.68     0  02:21           0      0.0177       0.272
  HS02004848           JUNCTION      8.25     8.25     0  02:23      0.0412      0.0412       0.104
  HS02004842           JUNCTION      0.00     4.49     0  00:03           0      0.0366      55.186
  HS02004837           JUNCTION     14.65    18.04     0  02:19       0.209       0.233       0.348
  HS02004830           JUNCTION      0.15    18.19     0  02:19     0.00423       0.223       0.554
  HS02004824           JUNCTION      9.17    27.24     0  02:23      0.0541       0.276       0.196
  HS02004817           JUNCTION      0.60    27.84     0  02:23      0.0169       0.293       6.037
  HS02004807           JUNCTION      9.85    36.73     0  02:22      0.0321       0.308       1.391
  HS02004802           JUNCTION      0.00    36.80     0  02:23           0       0.304       1.356
  HS02004799           JUNCTION      7.54    83.80     0  02:19       0.026       0.331       0.682
  HS02004792           JUNCTION     34.05    76.53     0  02:19       0.116       0.305       0.137
  HS02004788           JUNCTION     11.87    44.61     0  02:20      0.0831        0.19       0.206
  HS02004785           JUNCTION      0.15    33.27     0  02:19     0.00423       0.109       0.442
  HS02004777           JUNCTION      0.03    33.70     0  02:18    0.000846       0.109       4.968
  HS02004770           JUNCTION     28.83    34.99     0  02:15      0.0904        0.11       2.898
  HS02004480           JUNCTION      0.00    98.64     0  02:20           0       0.382       0.181
  HS02004479           JUNCTION      0.00    15.21     0  02:22           0      0.0641       1.150
  HS02004478           JUNCTION      0.00   135.11     0  02:21           0       0.671       0.097
  YS02001745           JUNCTION     42.89    42.89     0  03:01       0.505       0.505       0.121
  YS02001748           JUNCTION      0.04   111.54     0  04:12     0.00127       0.588       1.044
  YS02001751           JUNCTION      0.01   138.79     0  04:01     0.00031       0.582       2.383
  YS02001754           JUNCTION      0.26   125.40     0  03:13     0.00733        0.56       3.822
  YS02001762           JUNCTION      0.00    72.46     0  03:14           0       0.533       4.114
  YS02001765           JUNCTION      0.00    80.22     0  03:15           0       0.534       4.616
  YS02001767           JUNCTION      0.54    65.70     0  02:52      0.0151       0.555       6.557
  YS02001770           JUNCTION     55.86    66.78     0  03:53       0.603       0.656       4.742
  YS02001774           JUNCTION      0.00    29.81     0  05:02           0       0.135      22.658
  YS02001779           JUNCTION      0.01    30.40     0  05:02    0.000141      0.0569      28.359
  YS02001882           JUNCTION      0.00     2.68     0  02:12           0     0.00365      67.159
  YS02001884           JUNCTION      0.00     8.11     0  02:08           0      0.0148      42.429
  YS02001759           JUNCTION     54.85   127.87     0  02:56       0.565        1.06       2.233
  YS02001887           JUNCTION     73.24    73.24     0  02:45       0.689       0.696       0.968
  YS02001890           JUNCTION      0.00    72.85     0  02:49           0       0.677       1.096
  YS02001898           JUNCTION      0.00    72.52     0  02:51           0       0.666       0.277
  YS02001901           JUNCTION      0.00    72.54     0  02:51           0       0.666       0.762
  YS02001904           JUNCTION      0.00    72.26     0  02:53           0       0.666       0.710
  YS02001907           JUNCTION      0.00   130.78     0  02:59           0        1.42       1.525
  YS02001910           JUNCTION      0.00    59.24     0  03:01           0       0.761       1.271
  YS02001915           JUNCTION     38.65    58.95     0  03:01       0.436       0.765       0.524
  YS02001918           JUNCTION      0.00    20.45     0  03:03           0        0.33       0.262
  YS02001619           JUNCTION     37.51    37.51     0  03:01       0.429       0.429       1.470
  YS02001629           JUNCTION      0.00    56.26     0  04:12           0       0.381       5.116
  YS02001641           JUNCTION      0.00    78.79     0  03:10           0       0.782       2.688
  YS02001644           JUNCTION     40.70   115.15     0  03:01       0.484        1.24       2.088
  YS02001652           JUNCTION      0.00    73.68     0  04:07           0       0.536       3.843
  YS02001655           JUNCTION      0.15   113.69     0  04:07     0.00434       0.553       2.767
  YS02001920           JUNCTION      2.87    20.46     0  03:02      0.0809       0.332       0.528
  YS02001923           JUNCTION      0.04    17.59     0  03:02     0.00106       0.251       0.093
  YS02001926           JUNCTION      0.05    17.60     0  03:01     0.00147       0.252       0.674
  YS02001929           JUNCTION     17.56    17.56     0  03:01       0.251       0.251       0.088
  YS02001658           JUNCTION      0.00    86.08     0  04:08           0       0.555       1.108
  YS02001661           JUNCTION      0.00    51.54     0  02:47           0       0.498       0.131
  YS02001664           JUNCTION     51.54    51.54     0  02:47       0.499       0.499       0.031
  YS02001622           JUNCTION      0.00    43.49     0  04:02           0       0.423       4.402
  YS02001633           JUNCTION     41.39    76.86     0  02:54       0.499       0.836       3.870
  YS02001649           JUNCTION      0.00   187.97     0  03:14           0        1.69       2.234
  YS02001757           JUNCTION      0.00   395.68     0  03:12           0        3.15       2.996
  YS02001895           JUNCTION      0.00    72.62     0  02:49           0        0.67       0.486
  YS02001625           JUNCTION      0.00    54.69     0  04:50           0       0.412       8.630
  YS02163301           JUNCTION      0.00    43.19     0  04:12           0       0.361       6.694
  YS02163601           JUNCTION      0.11    79.33     0  04:05      0.0031       0.805       3.853
  YS02164001           JUNCTION      0.00    79.05     0  03:05           0       0.784       2.508
  YS02001647           JUNCTION      0.00   118.88     0  03:02           0         1.2       2.117
  YSB1154              JUNCTION      8.28     8.28     0  02:17      0.0314      0.0328       4.601
  YSB6556              JUNCTION      0.00     8.14     0  02:20           0      0.0339       3.811
  YSB1174              JUNCTION      8.52     8.52     0  02:12       0.023       0.024       5.655
  YSB1171              JUNCTION      0.00    15.19     0  02:19           0      0.0634      11.062
  YS02006553           JUNCTION      0.00   130.96     0  03:03           0        1.41       0.993
  YS02006561           JUNCTION      0.00   191.98     0  02:57           0        1.98       0.025
  YS02006556           JUNCTION      0.00   131.14     0  03:03           0        1.41       0.712
  YS02006558           JUNCTION     61.77   191.99     0  02:57       0.628        2.01       0.215
  YS02001783           JUNCTION      0.00   191.97     0  02:57           0        1.98       0.064
  YS02001784           JUNCTION      1.06   226.53     0  03:00      0.0299        2.01       0.107
  YS02001786           JUNCTION      0.06   243.20     0  03:00     0.00159        2.01       0.106
  YS02001788           JUNCTION      0.07   260.95     0  03:00       0.002        2.01       0.054
  YS02001790           JUNCTION      0.15   262.90     0  03:01     0.00437        2.02       0.007
  YS02001791           JUNCTION      0.00   263.80     0  03:01           0        2.02      -0.005
  YS02001793           JUNCTION      0.00   280.02     0  02:49           0        2.02      -0.002
  WS02004139           JUNCTION      0.32   285.32     0  07:42     0.00905        2.34       1.577
  WSC                  OUTFALL       0.00   468.22     0  07:50           0        6.07       0.000
  3                    OUTFALL       0.00   172.70     0  04:00           0       0.345       0.000
  4                    OUTFALL       0.00    46.05     0  06:11           0      0.0139       0.000
  5                    OUTFALL       0.00     0.00     0  00:00           0           0       0.000 ltr
  JK-storage           STORAGE       0.00   350.65     0  02:48           0        2.17       0.263
  CC-storage           STORAGE       0.00   302.45     0  02:58           0        2.99       0.891
  XR-storage           STORAGE     270.14   270.14     0  02:54        6.48        7.08      -0.003
  
  
  **********************
  Node Surcharge Summary
  **********************
  
  Surcharging occurs when water rises above the top of the highest conduit.
  ---------------------------------------------------------------------
                                               Max. Height   Min. Depth
                                   Hours       Above Crown    Below Rim
  Node                 Type      Surcharged         Meters       Meters
  ---------------------------------------------------------------------
  WS02006252           JUNCTION        0.25          0.184        0.916
  YS02001762           JUNCTION        2.88          0.125        1.025
  YS02001765           JUNCTION        1.24          0.075        1.025
  YS02001767           JUNCTION        0.88          0.036        0.994
  YS02001774           JUNCTION        2.29          0.102        0.948
  YS02001759           JUNCTION        3.55          0.160        1.050
  YS02001641           JUNCTION        1.61          0.091        1.009
  YS02001644           JUNCTION        1.81          0.095        0.825
  YS02001633           JUNCTION        1.03          0.056        1.004
  YS02001649           JUNCTION        3.12          0.136        0.914
  YS02001757           JUNCTION        4.54          0.263        0.947
  YS02163301           JUNCTION        0.21          0.013        1.017
  YS02163601           JUNCTION        2.93          0.130        0.950
  YS02164001           JUNCTION        1.18          0.070        1.030
  YS02001790           JUNCTION        2.98          0.395        0.762
  YS02001791           JUNCTION        3.51          0.351        1.569
  YS02001793           JUNCTION        4.13          0.777        1.823
  
  
  *********************
  Node Flooding Summary
  *********************
  
  Flooding refers to all water that overflows a node, whether it ponds or not.
  --------------------------------------------------------------------------
                                                             Total   Maximum
                                 Maximum   Time of Max       Flood    Ponded
                        Hours       Rate    Occurrence      Volume     Depth
  Node                 Flooded       LPS   days hr:min    10^6 ltr    Meters
  --------------------------------------------------------------------------
  JK-storage              2.41    264.74      0  03:01       0.878     0.000
  XR-storage              6.98    268.70      0  02:40       3.862     0.000
  
  
  **********************
  Storage Volume Summary
  **********************
  
  --------------------------------------------------------------------------------------------------
                         Average     Avg  Evap Exfil       Maximum     Max    Time of Max    Maximum
                          Volume    Pcnt  Pcnt  Pcnt        Volume    Pcnt     Occurrence    Outflow
  Storage Unit           1000 m3    Full  Loss  Loss       1000 m3    Full    days hr:min        LPS
  --------------------------------------------------------------------------------------------------
  JK-storage               0.227      78     0     0         0.291     100       0  02:58     299.97
  CC-storage               0.872       6     0     0         1.443       9       0  05:46     399.99
  XR-storage               0.916      99     0     0         0.926     100       0  00:39     285.00
  
  
  ***********************
  Outfall Loading Summary
  ***********************
  
  -----------------------------------------------------------
                         Flow       Avg       Max       Total
                         Freq      Flow      Flow      Volume
  Outfall Node           Pcnt       LPS       LPS    10^6 ltr
  -----------------------------------------------------------
  WSC                   99.99    260.11    468.22       6.072
  3                     25.85     86.63    172.70       0.345
  4                      4.27     15.85     46.05       0.014
  5                      0.00      0.00      0.00       0.000
  -----------------------------------------------------------
  System                32.53    362.60    539.44       6.431
  
  
  ********************
  Link Flow Summary
  ********************
  
  -----------------------------------------------------------------------------
                                 Maximum  Time of Max   Maximum    Max/    Max/
                                  |Flow|   Occurrence   |Veloc|    Full    Full
  Link                 Type          LPS  days hr:min     m/sec    Flow   Depth
  -----------------------------------------------------------------------------
  WS02003066WSF200     CONDUIT    331.02     0  06:23      2.47    0.06    0.18
  WS02006287WS02006284 CONDUIT    135.10     0  02:22      1.40    0.06    0.18
  WS02006284WS02006280 CONDUIT    135.20     0  02:22      1.65    0.06    0.16
  WS02006280WS02006229 CONDUIT    135.20     0  02:22      2.64    0.03    0.12
  WS02006229WS02006228 CONDUIT    346.76     0  06:14      0.72    1.15    0.92
  WS02006256WS02006235 CONDUIT    149.96     0  00:15      2.14    1.59    1.00
  WS02006253WS02006251 CONDUIT     25.77     0  02:43      0.41    0.08    0.86
  WS02006252WS02006251 CONDUIT    399.92     0  06:10      3.18    1.47    1.00
  WS02006251WS02006249 CONDUIT    392.87     0  06:10      1.16    1.13    0.83
  WS02006249WS02006248 CONDUIT    347.37     0  06:10      1.11    1.90    0.77
  WS02006248WS02006247 CONDUIT    344.79     0  06:10      1.08    0.75    0.79
  WS02006247WS02006245 CONDUIT    342.21     0  06:10      1.05    2.71    0.80
  WS02006245WS02006243 CONDUIT    340.01     0  06:11      1.08    1.01    0.79
  WS02006243WS02006242 CONDUIT    336.67     0  06:11      0.97    0.72    0.86
  WS02006242WS02006240 CONDUIT    333.64     0  06:11      0.93    1.33    0.89
  WS02006240WS02006239 CONDUIT    331.04     0  06:12      0.98    1.04    0.83
  WS02006239WS02006238 CONDUIT    329.93     0  06:12      0.92    1.06    0.89
  WS02006238WS02006235 CONDUIT    329.52     0  06:12      0.91    0.74    0.89
  WS02006235WS02006234 CONDUIT    328.77     0  06:12      0.98    3.47    0.82
  WS02006234WS02006232 CONDUIT    327.76     0  06:13      0.92    0.66    0.88
  WS02006232WS02006231 CONDUIT    327.11     0  06:13      0.97    0.69    0.82
  WS02006231WS02006230 CONDUIT    327.01     0  06:13      1.32    4.96    0.62
  WS02006230WS02006229 CONDUIT    335.89     0  06:14      0.87    7.47    0.99
  WS02006228WS02006109 CONDUIT    346.79     0  06:14      0.70    1.52    0.95
  WS02006116WS02004401 CONDUIT    338.89     0  06:17      0.79    0.47    0.68
  WS02006115WS02006116 CONDUIT    341.16     0  06:16      0.94    0.44    0.59
  WS02006113WS02006111 CONDUIT    353.32     0  06:15      2.12    0.42    0.37
  WS02006112WS02006115 CONDUIT    344.93     0  06:16      0.58    0.20    0.72
  WS02006111WS02006112 CONDUIT    347.96     0  06:15      1.27    0.17    0.64
  WS02006110WS02006113 CONDUIT    347.56     0  06:14      0.92    0.32    0.70
  WS02006109WS02006110 CONDUIT    347.77     0  06:14      0.73    0.67    0.90
  WS02004411WS02004412 CONDUIT    332.08     0  06:22      0.74    0.47    0.56
  WS02004401WS02004402 CONDUIT    337.39     0  06:18      0.83    0.41    0.71
  WS02004413WS02003067 CONDUIT    331.01     0  06:23      0.86    0.14    0.49
  WS02004412WS02004413 CONDUIT    331.32     0  06:22      0.61    0.22    0.65
  WS02004410WS02004411 CONDUIT    333.12     0  06:21      0.77    0.45    0.54
  WS02004409WS02004410 CONDUIT    334.51     0  06:21      0.82    0.43    0.52
  WS02004407WS02004409 CONDUIT    336.08     0  06:20      1.28    0.12    0.37
  WS02004406WS02004407 CONDUIT    336.16     0  06:20      0.79    0.15    0.53
  WS02004405WS02004406 CONDUIT    336.36     0  06:19      0.77    0.66    0.83
  WS02004404WS02004405 CONDUIT    336.42     0  06:19      0.96    3.30    0.82
  WS02004403WS02004404 CONDUIT    336.39     0  06:19      0.85    0.24    0.79
  WS02004402WS02004403 CONDUIT    336.79     0  06:19      0.87    0.48    0.74
  WS02004139WS02001211 CONDUIT    285.11     0  07:50      0.53    0.36    0.51
  WS02004138WS02004139 CONDUIT    285.00     0  07:42      2.39    0.06    0.37
  WS02003067WS02003066 CONDUIT    331.04     0  06:23      0.92    0.11    0.36
  WS02001213WS02003059 CONDUIT    292.02     0  07:50      0.56    0.48    0.63
  WS02001212WS02001213 CONDUIT    292.10     0  07:50      1.19    0.45    0.35
  WS02001211WS02001212 CONDUIT    292.27     0  07:50      0.67    0.22    0.54
  WS02003072WS02003073 CONDUIT    468.04     0  07:50      1.35    1.01    0.34
  WS02003069WS02003072 CONDUIT    468.15     0  07:49      1.30    0.23    0.36
  WS02003060WS02003069 CONDUIT    467.89     0  07:48      1.57    0.18    0.31
  WS02003059WS02003060 CONDUIT    292.15     0  07:50      0.73    0.19    0.51
  HS02004901HS02004770 CONDUIT      6.58     0  02:17      0.03    0.02    0.27
  HS02004876HS02004881 CONDUIT     21.85     0  02:21      0.41    0.23    0.08
  HS02004870HS02004876 CONDUIT     17.28     0  02:21      0.29    0.01    0.08
  HS02004842HS02004848 CONDUIT      3.82     0  02:32      0.02    0.00    0.26
  HS02004837HS02004842 CONDUIT      4.49     0  00:03      0.42    0.00    0.28
  HS02004830HS02004837 CONDUIT     18.04     0  02:19      0.39    0.02    0.07
  HS02004824HS02004830 CONDUIT     18.18     0  02:20      0.44    0.02    0.06
  HS02004817HS02004824 CONDUIT     27.24     0  02:23      0.17    0.01    0.37
  HS02004770HS02004777 CONDUIT     33.67     0  02:18      0.17    0.06    0.29
  HS02004799HS02004480 CONDUIT     83.63     0  02:20      0.47    0.11    0.25
  HS02004792HS02004799 CONDUIT     76.48     0  02:19      0.55    0.05    0.20
  HS02004788HS02004792 CONDUIT     44.56     0  02:21      0.71    0.03    0.09
  HS02004785HS02004788 CONDUIT     33.13     0  02:21      0.42    0.25    0.11
  HS02004777HS02004785 CONDUIT     33.12     0  02:19      0.21    0.04    0.23
  HS02004480HS02004478 CONDUIT     98.64     0  02:21      0.80    0.42    0.18
  HS02004479HS02004480 CONDUIT     15.34     0  02:23      0.15    0.01    0.25
  HS02004862HS02004870 CONDUIT     12.44     0  02:22      0.39    0.01    0.05
  HS02004848HS02004852 CONDUIT      4.68     0  02:21      0.25    0.01    0.03
  HS02004856HS02004862 CONDUIT      8.24     0  02:21      0.28    0.01    0.04
  HS02004852HS02004856 CONDUIT      4.64     0  02:23      0.08    0.01    0.08
  HS02004802HS02004478 CONDUIT     36.97     0  02:24      0.24    0.03    0.22
  HS02004478WS02006287 CONDUIT    135.11     0  02:22      1.09    0.04    0.14
  HS02004817HS02004807 CONDUIT     28.09     0  02:26      0.09    0.02    0.47
  HS02004807HS02004802 CONDUIT     36.80     0  02:23      0.20    0.07    0.26
  YS02001759YS02001757 CONDUIT    120.71     0  02:57      0.16    0.09    1.00
  YS02001762YS02001759 CONDUIT     76.87     0  03:16      0.17    0.09    1.00
  YS02001765YS02001762 CONDUIT     72.46     0  03:14      0.22    0.07    1.00
  YS02001770YS02001767 CONDUIT     65.16     0  02:52      0.32    0.26    1.00
  YS02001774YS02001770 CONDUIT     29.81     0  05:02      0.14    0.02    1.00
  YS02001779YS02001774 CONDUIT     30.39     0  05:02      0.08    0.02    0.92
  YS02001649YS02001757 CONDUIT    184.74     0  04:05      0.24    0.11    1.00
  YS02001767YS02001765 CONDUIT     80.22     0  03:15      0.26    0.10    1.00
  YS02006561YS02001783 CONDUIT    191.97     0  02:57      1.57    0.10    0.47
  YS02001783YS02001784 CONDUIT    225.47     0  03:00      1.05    0.31    0.75
  YS02001784YS02001785 CONDUIT    243.14     0  03:00      1.10    0.57    0.80
  YS02001788YS02001790 CONDUIT    262.74     0  03:01      1.65    0.19    0.93
  YS02001790YS02001791 CONDUIT    263.80     0  03:01      1.93    0.29    1.00
  YS02001791YS02001793 CONDUIT    280.02     0  02:49      3.74    0.12    1.00
  YS02001910YS02001907 CONDUIT     59.26     0  03:01      0.49    0.03    0.64
  YS02001786YS02001788 CONDUIT    260.88     0  03:00      1.50    0.50    0.83
  YS02001915YS02001910 CONDUIT     59.24     0  03:01      0.44    0.03    0.43
  YS02001918YS02001915 CONDUIT     20.44     0  03:04      0.44    0.01    0.20
  YS02001923YS02001920 CONDUIT     17.59     0  03:02      0.34    0.01    0.12
  YS02001926YS02001923 CONDUIT     17.55     0  03:02      0.40    0.03    0.11
  YS02001929YS02001926 CONDUIT     17.55     0  03:01      0.41    0.01    0.10
  YS02001920YS02001918 CONDUIT     20.45     0  03:03      0.37    0.02    0.12
  YS02001629YS02163301 CONDUIT     43.19     0  04:12      0.09    0.05    0.99
  YS02001619YS02001622 CONDUIT     43.49     0  04:02      0.58    0.06    0.61
  YS02001622YS02001625 CONDUIT     46.19     0  04:04      0.19    0.02    0.77
  YS02001625YS02001629 CONDUIT     56.26     0  04:12      0.19    0.03    0.76
  YS02163301YS02001633 CONDUIT     38.03     0  04:08      0.10    0.04    1.00
  YS02163601YS02164001 CONDUIT     79.05     0  03:05      0.12    0.07    1.00
  YS02164001YS02001641 CONDUIT     78.79     0  03:10      0.12    0.11    1.00
  YS02001641YS02001644 CONDUIT     74.59     0  03:01      0.13    0.24    1.00
  YS02001647YS02001649 CONDUIT    121.52     0  03:02      0.20    0.06    0.96
  YS02006553YS02006556 CONDUIT    131.14     0  03:03      0.22    0.11    0.72
  YS02006556YS02006558 CONDUIT    131.26     0  03:03      0.21    0.10    0.75
  YSB6556YSB1171       CONDUIT      8.24     0  02:23      0.04    0.01    0.52
  YS02001907YS02006553 CONDUIT    130.96     0  03:03      0.18    0.15    0.82
  YS02006558YS02006561 CONDUIT    191.98     0  02:57      2.02    0.42    0.37
  YS02001633YS02163601 CONDUIT     79.22     0  04:05      0.13    0.08    1.00
  YS02001644YS02001647 CONDUIT    118.88     0  03:02      0.20    0.07    0.96
  YS02001745YS02001748 CONDUIT     42.88     0  03:01      1.24    0.02    0.21
  YS02001748YS02001751 CONDUIT    138.78     0  04:01      0.97    0.07    0.55
  YS02001751YS02001754 CONDUIT     89.85     0  03:13      0.90    0.04    0.76
  YS02001754YS02001757 CONDUIT    123.28     0  04:06      0.33    0.05    0.96
  YS02001882YS02001884 CONDUIT      2.68     0  02:12      0.06    0.00    0.36
  YS02001884YS02001887 CONDUIT      8.11     0  02:08      0.06    0.01    0.46
  YS02001890YS02001895 CONDUIT     72.62     0  02:49      0.23    0.03    0.43
  YS02001895YS02001898 CONDUIT     72.52     0  02:51      0.45    0.13    0.29
  YS02001898YS02001901 CONDUIT     72.54     0  02:51      0.27    0.05    0.37
  YS02001901YS02001904 CONDUIT     72.26     0  02:53      0.23    0.11    0.42
  YS02001904YS02001907 CONDUIT     72.37     0  02:53      0.15    0.03    0.58
  YS02001887YS02001890 CONDUIT     72.85     0  02:49      0.18    0.12    0.51
  YS02001652YS02001649 CONDUIT    114.66     0  04:05      0.30    0.06    0.97
  YS02001655YS02001652 CONDUIT     66.35     0  03:05      0.96    0.03    0.79
  YS02001658YS02001655 CONDUIT    113.54     0  04:07      1.12    0.05    0.53
  YS02001661YS02001658 CONDUIT     51.54     0  02:47      1.25    0.02    0.22
  YS02001664YS02001661 CONDUIT     51.54     0  02:47      0.87    0.02    0.13
  YSB1154YSB6556       CONDUIT      8.14     0  02:20      0.19    0.01    0.41
  YSB1174YSB1171       CONDUIT      7.69     0  02:13      0.04    0.01    0.53
  YSB1171HS02004479    CONDUIT     15.21     0  02:22      0.54    0.01    0.40
  HS02004881HS02006253 CONDUIT     24.53     0  02:21      1.39    0.00    0.20
  YS02001793JiankangQianchi CONDUIT    350.65     0  02:48      2.52    0.03    1.00
  YS02001757CaochengTiaoxuchi CONDUIT    302.45     0  02:58      0.76    0.13    0.76
  WSF200WS02003060     CONDUIT    331.28     0  06:23      1.62    0.07    0.24
  1                    CONDUIT    468.22     0  07:50      2.69    0.16    0.27
  2                    CONDUIT     46.05     0  06:11      3.89    0.11    0.22
  3                    CONDUIT    172.70     0  04:00      7.54    0.28    0.36
  4                    CONDUIT      0.00     0  00:00      0.00    0.00    0.00
  CC-Pump-1            PUMP       200.00     0  06:00              1.00
  CC-Pump-2            PUMP       200.00     0  02:36              1.00
  JK-Pump-1            PUMP       299.91     0  00:20              1.00
  JK-Pump-2            PUMP       299.97     0  03:40              1.00
  XR-Pump-1            PUMP        95.00     0  01:10              1.00
  XR-Pump-2            PUMP        95.00     0  06:10              1.00
  XR-Pump-3            PUMP        95.00     0  07:10              1.00
  XR-Pump-4            PUMP        95.00     0  00:00              1.00
  
  
  ***************************
  Flow Classification Summary
  ***************************
  
  -------------------------------------------------------------------------------------
                      Adjusted    ---------- Fraction of Time in Flow Class ---------- 
                       /Actual         Up    Down  Sub   Sup   Up    Down  Norm  Inlet 
  Conduit               Length    Dry  Dry   Dry   Crit  Crit  Crit  Crit  Ltd   Ctrl  
  -------------------------------------------------------------------------------------
  WS02003066WSF200        1.00   0.07  0.00  0.00  0.00  0.93  0.00  0.00  0.85  0.00
  WS02006287WS02006284    1.00   0.06  0.02  0.00  0.76  0.15  0.00  0.00  0.79  0.00
  WS02006284WS02006280    1.00   0.07  0.00  0.00  0.00  0.00  0.00  0.93  0.00  0.00
  WS02006280WS02006229    1.00   0.07  0.00  0.00  0.00  0.00  0.00  0.93  0.00  0.00
  WS02006229WS02006228    1.00   0.00  0.00  0.00  1.00  0.00  0.00  0.00  0.00  0.00
  WS02006256WS02006235    1.00   0.01  0.00  0.00  0.99  0.00  0.00  0.00  0.00  0.00
  WS02006253WS02006251    1.00   0.04  0.02  0.00  0.93  0.00  0.01  0.00  0.00  0.00
  WS02006252WS02006251    1.00   0.13  0.03  0.00  0.00  0.00  0.84  0.00  0.00  0.00
  WS02006251WS02006249    1.00   0.00  0.00  0.00  1.00  0.00  0.00  0.00  0.57  0.00
  WS02006249WS02006248    1.00   0.00  0.01  0.00  0.66  0.00  0.34  0.00  0.00  0.00
  WS02006248WS02006247    1.00   0.01  0.00  0.00  0.96  0.00  0.00  0.03  0.50  0.00
  WS02006247WS02006245    1.00   0.01  0.00  0.00  0.96  0.00  0.00  0.04  0.00  0.00
  WS02006245WS02006243    1.00   0.01  0.00  0.00  0.88  0.00  0.00  0.11  0.03  0.00
  WS02006243WS02006242    1.00   0.01  0.01  0.00  0.98  0.00  0.00  0.00  0.50  0.00
  WS02006242WS02006240    1.00   0.01  0.00  0.00  0.98  0.00  0.01  0.00  0.00  0.00
  WS02006240WS02006239    1.00   0.01  0.00  0.00  0.85  0.00  0.00  0.14  0.02  0.00
  WS02006239WS02006238    1.00   0.01  0.00  0.00  0.99  0.00  0.00  0.00  0.17  0.00
  WS02006238WS02006235    1.00   0.01  0.00  0.00  0.99  0.00  0.00  0.00  0.00  0.00
  WS02006235WS02006234    1.00   0.01  0.00  0.00  0.87  0.00  0.12  0.00  0.00  0.00
  WS02006234WS02006232    1.00   0.01  0.00  0.00  0.99  0.00  0.00  0.00  0.09  0.00
  WS02006232WS02006231    1.00   0.01  0.00  0.00  0.98  0.00  0.01  0.00  0.00  0.00
  WS02006231WS02006230    1.00   0.01  0.00  0.00  0.08  0.00  0.91  0.00  0.00  0.00
  WS02006230WS02006229    1.00   0.00  0.00  0.00  0.99  0.00  0.00  0.01  0.00  0.00
  WS02006228WS02006109    1.00   0.00  0.00  0.00  1.00  0.00  0.00  0.00  0.00  0.00
  WS02006116WS02004401    1.00   0.04  0.00  0.00  0.96  0.00  0.00  0.00  0.00  0.00
  WS02006115WS02006116    1.00   0.04  0.00  0.00  0.95  0.00  0.00  0.01  0.00  0.00
  WS02006113WS02006111    1.00   0.02  0.00  0.00  0.00  0.98  0.00  0.00  0.18  0.00
  WS02006112WS02006115    1.00   0.03  0.01  0.00  0.96  0.00  0.01  0.00  0.00  0.00
  WS02006111WS02006112    1.00   0.03  0.00  0.00  0.96  0.00  0.00  0.01  0.95  0.00
  WS02006110WS02006113    1.00   0.00  0.02  0.00  0.98  0.00  0.00  0.00  0.00  0.00
  WS02006109WS02006110    1.00   0.00  0.00  0.00  0.99  0.00  0.00  0.00  0.00  0.00
  WS02004411WS02004412    1.00   0.05  0.00  0.00  0.95  0.00  0.00  0.00  0.00  0.00
  WS02004401WS02004402    1.00   0.04  0.00  0.00  0.96  0.00  0.00  0.00  0.00  0.00
  WS02004413WS02003067    1.00   0.05  0.01  0.00  0.00  0.00  0.94  0.00  0.00  0.00
  WS02004412WS02004413    1.00   0.05  0.00  0.00  0.95  0.00  0.00  0.00  0.01  0.00
  WS02004410WS02004411    1.00   0.05  0.00  0.00  0.95  0.00  0.00  0.00  0.00  0.00
  WS02004409WS02004410    1.00   0.05  0.00  0.00  0.95  0.00  0.00  0.00  0.02  0.00
  WS02004407WS02004409    1.00   0.05  0.00  0.00  0.95  0.00  0.00  0.00  0.92  0.00
  WS02004406WS02004407    1.00   0.00  0.05  0.00  0.95  0.00  0.00  0.00  0.00  0.00
  WS02004405WS02004406    1.00   0.00  0.00  0.00  1.00  0.00  0.00  0.00  0.03  0.00
  WS02004404WS02004405    1.00   0.00  0.00  0.00  1.00  0.00  0.00  0.00  0.00  0.00
  WS02004403WS02004404    1.00   0.00  0.04  0.00  0.96  0.00  0.00  0.00  0.00  0.00
  WS02004402WS02004403    1.00   0.04  0.00  0.00  0.96  0.00  0.00  0.00  0.00  0.00
  WS02004139WS02001211    1.00   0.00  0.00  0.00  1.00  0.00  0.00  0.00  0.00  0.00
  WS02004138WS02004139    1.00   0.00  0.00  0.00  1.00  0.00  0.00  0.00  1.00  0.00
  WS02003067WS02003066    1.00   0.06  0.00  0.00  0.93  0.00  0.00  0.00  0.00  0.00
  WS02001213WS02003059    1.00   0.00  0.00  0.00  1.00  0.00  0.00  0.00  0.00  0.00
  WS02001212WS02001213    1.00   0.00  0.00  0.00  0.28  0.00  0.71  0.00  0.00  0.00
  WS02001211WS02001212    1.00   0.00  0.00  0.00  1.00  0.00  0.00  0.00  0.00  0.00
  WS02003072WS02003073    1.00   0.00  0.00  0.00  0.00  0.00  0.00  1.00  0.00  0.00
  WS02003069WS02003072    1.00   0.00  0.00  0.00  1.00  0.00  0.00  0.00  0.86  0.00
  WS02003060WS02003069    1.00   0.00  0.00  0.00  0.97  0.03  0.00  0.00  0.59  0.00
  WS02003059WS02003060    1.00   0.00  0.00  0.00  1.00  0.00  0.00  0.00  0.02  0.00
  HS02004901HS02004770    1.00   0.07  0.00  0.00  0.93  0.00  0.00  0.00  0.03  0.00
  HS02004876HS02004881    1.00   0.01  0.00  0.00  0.99  0.00  0.00  0.00  0.00  0.00
  HS02004870HS02004876    1.00   0.00  0.00  0.00  0.99  0.00  0.00  0.00  0.95  0.00
  HS02004842HS02004848    1.00   0.00  0.07  0.00  0.93  0.00  0.00  0.00  0.70  0.00
  HS02004837HS02004842    1.00   0.00  0.00  0.00  1.00  0.00  0.00  0.00  0.11  0.00
  HS02004830HS02004837    1.00   0.00  0.00  0.00  1.00  0.00  0.00  0.00  0.99  0.00
  HS02004824HS02004830    1.00   0.00  0.00  0.00  1.00  0.00  0.00  0.00  0.00  0.00
  HS02004817HS02004824    1.00   0.00  0.00  0.00  1.00  0.00  0.00  0.00  1.00  0.00
  HS02004770HS02004777    1.00   0.00  0.07  0.00  0.93  0.00  0.00  0.00  0.08  0.00
  HS02004799HS02004480    1.00   0.00  0.02  0.00  0.91  0.00  0.07  0.00  0.00  0.00
  HS02004792HS02004799    1.00   0.00  0.00  0.00  1.00  0.00  0.00  0.00  0.98  0.00
  HS02004788HS02004792    1.00   0.00  0.00  0.00  1.00  0.00  0.00  0.00  0.98  0.00
  HS02004785HS02004788    1.00   0.00  0.00  0.00  1.00  0.00  0.00  0.00  0.00  0.00
  HS02004777HS02004785    1.00   0.00  0.00  0.00  1.00  0.00  0.00  0.00  0.22  0.00
  HS02004480HS02004478    1.00   0.07  0.00  0.00  0.77  0.00  0.00  0.15  0.00  0.00
  HS02004479HS02004480    1.00   0.02  0.00  0.00  0.98  0.00  0.00  0.00  0.16  0.00
  HS02004862HS02004870    1.00   0.00  0.00  0.00  1.00  0.00  0.00  0.00  0.05  0.00
  HS02004848HS02004852    1.00   0.07  0.00  0.00  0.93  0.00  0.00  0.00  0.70  0.00
  HS02004856HS02004862    1.00   0.00  0.11  0.00  0.89  0.00  0.00  0.00  0.73  0.00
  HS02004852HS02004856    1.00   0.07  0.01  0.00  0.92  0.00  0.00  0.00  0.82  0.00
  HS02004802HS02004478    1.00   0.07  0.01  0.00  0.92  0.00  0.00  0.00  0.00  0.00
  HS02004478WS02006287    1.00   0.08  0.00  0.00  0.91  0.00  0.00  0.00  0.81  0.00
  HS02004817HS02004807    1.00   0.00  0.07  0.00  0.93  0.00  0.00  0.00  0.00  0.00
  HS02004807HS02004802    1.00   0.07  0.00  0.00  0.93  0.00  0.00  0.00  0.01  0.00
  YS02001759YS02001757    1.00   0.00  0.00  0.00  1.00  0.00  0.00  0.00  0.17  0.00
  YS02001762YS02001759    1.00   0.00  0.00  0.00  1.00  0.00  0.00  0.00  0.05  0.00
  YS02001765YS02001762    1.00   0.00  0.00  0.00  1.00  0.00  0.00  0.00  0.23  0.00
  YS02001770YS02001767    1.00   0.00  0.00  0.00  1.00  0.00  0.00  0.00  0.00  0.00
  YS02001774YS02001770    1.00   0.00  0.08  0.00  0.92  0.00  0.00  0.00  0.07  0.00
  YS02001779YS02001774    1.00   0.00  0.00  0.00  1.00  0.00  0.00  0.00  0.27  0.00
  YS02001649YS02001757    1.00   0.00  0.00  0.00  1.00  0.00  0.00  0.00  0.19  0.00
  YS02001767YS02001765    1.00   0.00  0.00  0.00  1.00  0.00  0.00  0.00  0.01  0.00
  YS02006561YS02001783    1.00   0.11  0.00  0.00  0.46  0.43  0.00  0.00  0.72  0.00
  YS02001783YS02001784    1.00   0.00  0.11  0.00  0.89  0.00  0.00  0.00  0.07  0.00
  YS02001784YS02001785    1.00   0.00  0.00  0.00  1.00  0.00  0.00  0.00  0.26  0.00
  YS02001788YS02001790    1.00   0.00  0.00  0.00  0.77  0.23  0.00  0.00  0.51  0.00
  YS02001790YS02001791    1.00   0.00  0.00  0.00  0.69  0.31  0.00  0.00  0.09  0.00
  YS02001791YS02001793    1.00   0.00  0.00  0.00  0.71  0.29  0.00  0.00  0.02  0.00
  YS02001910YS02001907    1.00   0.00  0.00  0.00  0.99  0.00  0.00  0.01  0.13  0.00
  YS02001786YS02001788    1.00   0.00  0.00  0.00  0.67  0.33  0.00  0.00  0.00  0.00
  YS02001915YS02001910    1.00   0.00  0.00  0.00  1.00  0.00  0.00  0.00  0.25  0.00
  YS02001918YS02001915    1.00   0.00  0.00  0.00  0.99  0.00  0.00  0.00  0.80  0.00
  YS02001923YS02001920    1.00   0.00  0.00  0.00  1.00  0.00  0.00  0.00  1.00  0.00
  YS02001926YS02001923    1.00   0.00  0.05  0.00  0.00  0.00  0.95  0.00  0.00  0.00
  YS02001929YS02001926    1.00   0.00  0.07  0.00  0.93  0.00  0.00  0.00  0.86  0.00
  YS02001920YS02001918    1.00   0.00  0.00  0.00  1.00  0.00  0.00  0.00  0.00  0.00
  YS02001629YS02163301    1.00   0.10  0.01  0.00  0.90  0.00  0.00  0.00  0.00  0.00
  YS02001619YS02001622    1.00   0.07  0.00  0.00  0.93  0.00  0.00  0.00  0.00  0.00
  YS02001622YS02001625    1.00   0.07  0.00  0.00  0.93  0.00  0.00  0.00  0.14  0.00
  YS02001625YS02001629    1.00   0.07  0.04  0.00  0.87  0.00  0.02  0.00  0.00  0.00
  YS02163301YS02001633    1.00   0.00  0.10  0.00  0.90  0.00  0.00  0.00  0.00  0.00
  YS02163601YS02164001    1.00   0.00  0.05  0.00  0.95  0.00  0.00  0.00  0.00  0.00
  YS02164001YS02001641    1.00   0.00  0.05  0.00  0.95  0.00  0.00  0.00  0.07  0.00
  YS02001641YS02001644    1.00   0.00  0.00  0.00  1.00  0.00  0.00  0.00  0.00  0.00
  YS02001647YS02001649    1.00   0.00  0.11  0.00  0.89  0.00  0.00  0.00  0.01  0.00
  YS02006553YS02006556    1.00   0.00  0.00  0.00  1.00  0.00  0.00  0.00  0.03  0.00
  YS02006556YS02006558    1.00   0.00  0.00  0.00  1.00  0.00  0.00  0.00  0.00  0.00
  YSB6556YSB1171          1.00   0.02  0.04  0.00  0.93  0.00  0.00  0.00  0.00  0.00
  YS02001907YS02006553    1.00   0.00  0.01  0.00  0.99  0.00  0.00  0.00  0.00  0.00
  YS02006558YS02006561    1.00   0.11  0.00  0.00  0.00  0.89  0.00  0.00  0.71  0.00
  YS02001633YS02163601    1.00   0.00  0.00  0.00  1.00  0.00  0.00  0.00  0.20  0.00
  YS02001644YS02001647    1.00   0.00  0.11  0.00  0.89  0.00  0.00  0.00  0.00  0.00
  YS02001745YS02001748    1.00   0.00  0.00  0.00  0.75  0.02  0.00  0.24  0.59  0.00
  YS02001748YS02001751    1.00   0.00  0.00  0.00  0.96  0.04  0.00  0.00  0.27  0.00
  YS02001751YS02001754    1.00   0.00  0.00  0.00  0.88  0.00  0.00  0.12  0.02  0.00
  YS02001754YS02001757    1.00   0.00  0.00  0.00  1.00  0.00  0.00  0.00  0.27  0.00
  YS02001882YS02001884    1.00   0.09  0.01  0.00  0.90  0.00  0.00  0.00  0.00  0.00
  YS02001884YS02001887    1.00   0.05  0.02  0.00  0.94  0.00  0.00  0.00  0.00  0.00
  YS02001890YS02001895    1.00   0.00  0.10  0.00  0.90  0.00  0.00  0.00  0.00  0.00
  YS02001895YS02001898    1.00   0.10  0.00  0.00  0.89  0.00  0.01  0.00  0.00  0.00
  YS02001898YS02001901    1.00   0.10  0.01  0.00  0.90  0.00  0.00  0.00  0.02  0.00
  YS02001901YS02001904    1.00   0.10  0.00  0.00  0.90  0.00  0.00  0.00  0.00  0.00
  YS02001904YS02001907    1.00   0.00  0.09  0.00  0.90  0.00  0.00  0.00  0.00  0.00
  YS02001887YS02001890    1.00   0.00  0.00  0.00  0.99  0.00  0.01  0.00  0.00  0.00
  YS02001652YS02001649    1.00   0.00  0.00  0.00  1.00  0.00  0.00  0.00  0.27  0.00
  YS02001655YS02001652    1.00   0.00  0.00  0.00  0.88  0.00  0.00  0.12  0.02  0.00
  YS02001658YS02001655    1.00   0.00  0.09  0.00  0.87  0.04  0.00  0.00  0.19  0.00
  YS02001661YS02001658    1.00   0.09  0.00  0.00  0.75  0.17  0.00  0.00  0.72  0.00
  YS02001664YS02001661    1.00   0.07  0.00  0.00  0.93  0.00  0.00  0.00  0.86  0.00
  YSB1154YSB6556          1.00   0.07  0.00  0.00  0.93  0.00  0.00  0.00  0.02  0.00
  YSB1174YSB1171          1.00   0.04  0.02  0.00  0.94  0.00  0.00  0.00  0.00  0.00
  YSB1171HS02004479       1.00   0.02  0.00  0.00  0.96  0.00  0.00  0.02  0.13  0.00
  HS02004881HS02006253    1.00   0.04  0.00  0.00  0.46  0.03  0.00  0.47  0.24  0.00
  YS02001793JiankangQianchi    1.00   0.00  0.00  0.00  0.93  0.07  0.00  0.00  0.28  0.00
  YS02001757CaochengTiaoxuchi    1.00   0.00  0.13  0.00  0.87  0.00  0.00  0.00  0.00  0.00
  WSF200WS02003060        1.00   0.00  0.07  0.00  0.49  0.44  0.00  0.00  0.57  0.00
  1                       1.00   0.00  0.00  0.00  0.00  1.00  0.00  0.00  0.24  0.00
  2                       1.00   0.96  0.00  0.00  0.00  0.04  0.00  0.00  0.01  0.00
  3                       1.00   0.74  0.00  0.00  0.00  0.26  0.00  0.00  0.34  0.00
  4                       1.00   1.00  0.00  0.00  0.00  0.00  0.00  0.00  0.00  0.00
  
  
  *************************
  Conduit Surcharge Summary
  *************************
  
  ----------------------------------------------------------------------------
                                                           Hours        Hours 
                         --------- Hours Full --------   Above Full   Capacity
  Conduit                Both Ends  Upstream  Dnstream   Normal Flow   Limited
  ----------------------------------------------------------------------------
  WS02006229WS02006228        0.01      0.01      0.01      0.37         0.01
  WS02006256WS02006235        3.57      3.57      6.19      1.37         0.01
  WS02006252WS02006251        0.09      0.09      0.25      0.21         0.01
  WS02006251WS02006249        0.01      0.01      0.01      0.09         0.01
  WS02006249WS02006248        0.01      0.01      0.01      1.44         0.01
  WS02006247WS02006245        0.01      0.01      0.01      2.04         0.01
  WS02006245WS02006243        0.01      0.01      0.01      0.02         0.01
  WS02006242WS02006240        0.01      0.01      0.01      0.26         0.01
  WS02006240WS02006239        0.01      0.01      0.01      0.08         0.01
  WS02006239WS02006238        0.01      0.01      0.01      0.11         0.01
  WS02006235WS02006234        0.01      0.01      0.01      3.52         0.01
  WS02006231WS02006230        0.01      0.01      0.01      3.79         0.01
  WS02006230WS02006229        0.01      0.15      0.01      4.16         0.01
  WS02006228WS02006109        0.01      0.01      0.01      1.43         0.01
  WS02006111WS02006112        0.01      0.01      0.32      0.01         0.01
  WS02004404WS02004405        0.01      0.01      0.01      4.07         0.01
  WS02003072WS02003073        0.01      0.01      0.01      0.10         0.01
  YS02001759YS02001757        3.55      3.55      4.54      0.01         0.01
  YS02001762YS02001759        2.88      2.88      3.55      0.01         0.01
  YS02001765YS02001762        1.24      1.24      2.88      0.01         0.01
  YS02001770YS02001767        0.81      0.81      0.87      0.01         0.01
  YS02001774YS02001770        0.01      0.01      2.29      0.01         0.01
  YS02001779YS02001774        0.01      0.01      2.29      0.01         0.01
  YS02001649YS02001757        3.11      3.11      4.54      0.01         0.01
  YS02001767YS02001765        0.87      0.87      1.24      0.01         0.01
  YS02001788YS02001790        0.01      0.01      2.98      0.01         0.01
  YS02001790YS02001791        2.98      2.98      3.51      0.01         0.01
  YS02001791YS02001793        3.51      3.51      4.35      0.01         0.01
  YS02001629YS02163301        0.01      0.01      0.21      0.01         0.01
  YS02163301YS02001633        0.21      0.21      1.22      0.01         0.01
  YS02163601YS02164001        1.18      1.18      2.93      0.01         0.01
  YS02164001YS02001641        1.18      1.18      1.60      0.01         0.01
  YS02001641YS02001644        1.60      1.60      1.81      0.01         0.02
  YS02001647YS02001649        0.01      0.01      3.11      0.01         0.01
  YS02001633YS02163601        1.03      1.03      2.93      0.01         0.01
  YS02001644YS02001647        0.01      0.01      1.81      0.01         0.01
  YS02001754YS02001757        0.01      0.01      4.54      0.01         0.01
  YS02001652YS02001649        0.01      0.01      3.11      0.01         0.01
  YS02001793JiankangQianchi        4.13      4.13      5.75      0.01         0.01
  YS02001757CaochengTiaoxuchi        0.01      0.01      4.54      0.01         0.01
  
  
  ***************
  Pumping Summary
  ***************
  
  ---------------------------------------------------------------------------------------------------------
                                                  Min       Avg       Max     Total     Power    % Time Off
                        Percent   Number of      Flow      Flow      Flow    Volume     Usage    Pump Curve
  Pump                 Utilized   Start-Ups       LPS       LPS       LPS  10^6 ltr     Kw-hr    Low   High
  ---------------------------------------------------------------------------------------------------------
  CC-Pump-1               14.90           2      0.00    112.37    200.00     0.480      1.59    0.0    0.0
  CC-Pump-2               41.14           4      0.00    116.74    200.00     1.256      4.18    0.0   19.8
  JK-Pump-1               19.14           4      0.00    138.18    299.91     0.366      3.68    0.0    0.0
  JK-Pump-2               21.25           5      0.00    163.60    299.97     0.723      4.10    0.0    0.0
  XR-Pump-1               72.28           9      0.00     55.27     95.00     1.111      4.96    0.0    0.0
  XR-Pump-2               12.76           3      0.00     42.82     95.00     0.171      0.76    0.0    0.0
  XR-Pump-3               17.02           4      0.00     41.33     95.00     0.257      1.18    0.0    0.0
  XR-Pump-4               51.05           9      0.00     54.99     95.00     0.798      4.38    0.0    0.0
  

  Analysis begun on:  Wed Jan  5 21:41:52 2022
  Analysis ended on:  Wed Jan  5 21:41:53 2022
  Total elapsed time: 00:00:01