
  EPA STORM WATER MANAGEMENT MODEL - VERSION 5.1 (Build 5.3.0.dev0)
  --------------------------------------------------------------

  WARNING 04: minimum elevation drop used for Conduit WS02004404WS02004405
  WARNING 03: negative offset ignored for Link YS02001904YS02001907
  
  *********************************************************
  NOTE: The summary statistics displayed in this report are
  based on results found at every computational time step,  
  not just on results from each reporting time step.
  *********************************************************
  
  ****************
  Analysis Options
  ****************
  Flow Units ............... LPS
  Process Models:
    Rainfall/Runoff ........ YES
    RDII ................... NO
    Snowmelt ............... NO
    Groundwater ............ NO
    Flow Routing ........... YES
    Ponding Allowed ........ NO
    Water Quality .......... NO
  Infiltration Method ...... HORTON
  Flow Routing Method ...... DYNWAVE
  Surcharge Method ......... EXTRAN
  Starting Date ............ 08/28/2015 08:00:00
  Ending Date .............. 08/28/2015 15:50:00
  Antecedent Dry Days ...... 8.0
  Report Time Step ......... 00:01:00
  Wet Time Step ............ 00:01:00
  Dry Time Step ............ 00:01:00
  Routing Time Step ........ 5.00 sec
  Variable Time Step ....... YES
  Maximum Trials ........... 8
  Number of Threads ........ 4
  Head Tolerance ........... 0.001500 m
  
  
  **************************        Volume         Depth
  Runoff Quantity Continuity     hectare-m            mm
  **************************     ---------       -------
  Total Precipitation ......         2.663         5.830
  Evaporation Loss .........         0.000         0.000
  Infiltration Loss ........         0.668         1.463
  Surface Runoff ...........         1.113         2.436
  Final Storage ............         0.882         1.932
  Continuity Error (%) .....        -0.018
  
  
  **************************        Volume        Volume
  Flow Routing Continuity        hectare-m      10^6 ltr
  **************************     ---------     ---------
  Dry Weather Inflow .......         0.616         6.165
  Wet Weather Inflow .......         1.112        11.120
  Groundwater Inflow .......         0.000         0.000
  RDII Inflow ..............         0.000         0.000
  External Inflow ..........         0.102         1.024
  External Outflow .........         0.670         6.698
  Flooding Loss ............         0.680         6.797
  Evaporation Loss .........         0.000         0.000
  Exfiltration Loss ........         0.000         0.000
  Initial Stored Volume ....         0.076         0.761
  Final Stored Volume ......         0.563         5.633
  Continuity Error (%) .....        -0.310
  
  
  *************************
  Highest Continuity Errors
  *************************
  Node HS02004842 (28.71%)
  Node YS02001884 (23.03%)
  Node YS02001774 (22.79%)
  Node YSB1171 (7.07%)
  Node HS02004901 (5.60%)
  
  
  ***************************
  Time-Step Critical Elements
  ***************************
  Link WS02006252WS02006251 (67.95%)
  Link 3 (20.46%)
  Link WS02006280WS02006229 (4.27%)
  Link WS02006238WS02006235 (1.79%)
  
  
  ********************************
  Highest Flow Instability Indexes
  ********************************
  Link WS02006113WS02006111 (51)
  Link YS02001793JiankangQianchi (12)
  Link YS02001791YS02001793 (11)
  Link YS02164001YS02001641 (10)
  Link YS02001629YS02163301 (10)
  
  
  *************************
  Routing Time Step Summary
  *************************
  Minimum Time Step           :     0.50 sec
  Average Time Step           :     1.15 sec
  Maximum Time Step           :     5.00 sec
  Percent in Steady State     :    -0.00
  Average Iterations per Step :     3.06
  Percent Not Converging      :    11.29
  
  
  ***************************
  Subcatchment Runoff Summary
  ***************************
  
  ------------------------------------------------------------------------------------------------------------------------------
                            Total      Total      Total      Total     Imperv       Perv      Total       Total     Peak  Runoff
                           Precip      Runon       Evap      Infil     Runoff     Runoff     Runoff      Runoff   Runoff   Coeff
  Subcatchment                 mm         mm         mm         mm         mm         mm         mm    10^6 ltr      LPS
  ------------------------------------------------------------------------------------------------------------------------------
  sub0                       5.83       0.00       0.00       0.41       4.16       0.00       4.16        0.00     1.37   0.713
  sub1                       5.83       0.00       0.00       0.64       3.93       0.00       3.93        0.03     7.19   0.675
  sub2                       5.83       0.00       0.00       2.16       2.77       0.00       2.77        0.03     6.37   0.475
  sub3                       5.83       0.00       0.00       2.16       2.73       0.00       2.73        0.06    13.12   0.469
  sub4                       5.83       0.00       0.00       0.64       3.80       0.00       3.80        0.08    14.74   0.651
  sub5                       5.83       0.00       0.00       0.41       4.11       0.00       4.11        0.05    12.79   0.705
  sub7                       5.83       0.00       0.00       0.52       4.05       0.00       4.05        0.01     4.51   0.695
  sub8                       5.83       0.00       0.00       0.52       4.04       0.00       4.04        0.03     7.96   0.693
  sub9                       5.83       0.00       0.00       0.52       4.04       0.00       4.04        0.02     5.90   0.693
  sub10                      5.83       0.00       0.00       0.47       4.07       0.00       4.07        0.04    12.76   0.699
  sub11                      5.83       0.00       0.00       0.47       4.09       0.00       4.09        0.05    14.97   0.701
  sub12                      5.83       0.00       0.00       0.76       3.88       0.00       3.88        0.03    12.68   0.666
  sub14                      5.83       0.00       0.00       0.52       4.04       0.00       4.04        0.04    11.53   0.693
  sub15                      5.83       0.00       0.00       1.75       3.10       0.00       3.10        0.05    15.64   0.532
  sub16                      5.83       0.00       0.00       1.92       2.99       0.00       2.99        0.03    11.14   0.512
  sub17                      5.83       0.00       0.00       1.87       3.03       0.00       3.03        0.03     9.00   0.520
  sub22                      5.83       0.00       0.00       2.51       2.53       0.00       2.53        0.16    51.19   0.435
  sub23                      5.83       0.00       0.00       2.16       2.80       0.00       2.80        0.13    43.62   0.481
  sub60                      5.83       0.00       0.00       0.70       2.71       0.00       2.71        0.82    76.21   0.465
  sub61                      5.83       0.00       0.00       0.99       2.90       0.00       2.90        0.90    95.28   0.498
  sub62                      5.83       0.00       0.00       0.47       3.11       0.00       3.11        0.96    97.52   0.534
  sub63                      5.83       0.00       0.00       1.69       2.59       0.00       2.59        0.78    88.77   0.444
  sub64                      5.83       0.00       0.00       0.87       2.59       0.00       2.59        0.79    72.36   0.444
  sub65                      5.83       0.00       0.00       0.76       2.62       0.00       2.62        0.81    73.39   0.450
  sub66                      5.83       0.00       0.00       1.69       2.26       0.00       2.26        0.69    66.37   0.388
  sub67                      5.83       0.00       0.00       0.47       3.43       0.00       3.43        1.06   124.64   0.588
  sub68                      5.83       0.00       0.00       0.82       3.09       0.00       3.09        0.95   105.22   0.530
  sub69                      5.83       0.00       0.00       0.87       3.34       0.00       3.34        0.78   104.02   0.573
  sub70                      5.83       3.41       0.00       3.14       4.09       0.00       4.09        0.94    84.08   0.442
  sub71                      5.83       0.00       0.00       0.47       2.97       0.00       2.97        0.70    68.20   0.510
  sub72                      5.83       0.00       0.00       0.41       2.09       0.00       2.09        0.43    31.96   0.358
  sub73                      5.83       3.98       0.00       3.33       4.15       0.00       4.15        0.97    72.10   0.423
  sub74                      5.83       0.00       0.00       4.37       1.01       0.00       1.01        0.40    57.95   0.173
  
  
  ******************
  Node Depth Summary
  ******************
  
  ---------------------------------------------------------------------------------
                                 Average  Maximum  Maximum  Time of Max    Reported
                                   Depth    Depth      HGL   Occurrence   Max Depth
  Node                 Type       Meters   Meters   Meters  days hr:min      Meters
  ---------------------------------------------------------------------------------
  WS02001211           JUNCTION     0.42     0.60     5.44     0  01:21        0.60
  WS02001212           JUNCTION     0.19     0.33     5.39     0  01:22        0.33
  WS02001213           JUNCTION     0.41     0.53     5.29     0  03:10        0.53
  WS02003069           JUNCTION     0.26     0.38     4.96     0  03:10        0.38
  WS02003072           JUNCTION     0.33     0.45     4.82     0  03:10        0.45
  WS02003073           JUNCTION     0.19     0.27     4.33     0  03:11        0.27
  WS02003060           JUNCTION     0.24     0.34     5.27     0  03:09        0.34
  WS02003066           JUNCTION     0.18     0.25     5.81     0  02:37        0.25
  WS02003059           JUNCTION     0.48     0.60     5.28     0  03:10        0.60
  WS02003067           JUNCTION     0.46     0.63     5.95     0  02:37        0.63
  WS02004401           JUNCTION     0.53     0.73     6.73     0  02:33        0.73
  WS02004402           JUNCTION     0.57     0.76     6.72     0  02:33        0.76
  WS02004403           JUNCTION     0.59     0.78     6.71     0  02:33        0.78
  WS02004404           JUNCTION     0.67     0.86     6.71     0  02:33        0.86
  WS02004406           JUNCTION     0.68     0.86     6.69     0  02:34        0.86
  WS02004409           JUNCTION     0.34     0.54     6.31     0  02:36        0.54
  WS02004410           JUNCTION     0.37     0.56     6.28     0  02:36        0.56
  WS02004411           JUNCTION     0.39     0.57     6.25     0  02:37        0.57
  WS02004412           JUNCTION     0.41     0.59     6.23     0  02:37        0.59
  WS02004413           JUNCTION     0.57     0.76     6.23     0  02:37        0.76
  WS02004405           JUNCTION     0.67     0.85     6.70     0  02:34        0.85
  WS02006109           JUNCTION     0.59     0.83     7.45     0  02:29        0.83
  WS02006110           JUNCTION     0.60     0.82     7.40     0  02:29        0.82
  WS02006111           JUNCTION     0.16     0.25     6.96     0  02:29        0.25
  WS02006112           JUNCTION     0.68     0.90     6.78     0  02:32        0.90
  WS02006113           JUNCTION     0.24     0.39     7.28     0  02:30        0.39
  WS02006115           JUNCTION     0.41     0.62     6.76     0  02:33        0.62
  WS02006116           JUNCTION     0.50     0.70     6.74     0  02:33        0.70
  WS02006230           JUNCTION     0.51     0.81     7.56     0  06:35        0.81
  WS02006231           JUNCTION     0.32     0.55     7.68     0  06:35        0.55
  WS02006232           JUNCTION     0.44     0.71     7.75     0  06:34        0.71
  WS02006234           JUNCTION     0.34     0.64     7.80     0  06:34        0.64
  WS02006235           JUNCTION     0.37     0.68     7.84     0  06:33        0.68
  WS02006238           JUNCTION     0.39     0.71     7.85     0  06:33        0.71
  WS02006240           JUNCTION     0.30     0.62     7.92     0  06:33        0.62
  WS02006242           JUNCTION     0.36     0.69     7.96     0  06:33        0.69
  WS02006243           JUNCTION     0.25     0.57     7.99     0  06:33        0.57
  WS02006245           JUNCTION     0.25     0.55     8.03     0  06:32        0.55
  WS02006247           JUNCTION     0.28     0.57     8.07     0  06:32        0.57
  WS02006248           JUNCTION     0.24     0.51     8.10     0  06:31        0.51
  WS02006249           JUNCTION     0.28     0.55     8.15     0  06:31        0.55
  WS02006239           JUNCTION     0.35     0.68     7.88     0  06:33        0.67
  WS02006251           JUNCTION     0.27     0.57     8.24     0  06:30        0.57
  WS02006252           JUNCTION     0.25     0.58     8.83     0  06:30        0.58
  WS02006253           JUNCTION     0.29     0.61     8.25     0  06:30        0.59
  WS02006256           JUNCTION     0.74     1.20     8.13     0  05:30        1.20
  WS02004138           JUNCTION     0.05     0.14     7.39     0  01:20        0.14
  WS02004407           JUNCTION     0.16     0.25     6.56     0  02:34        0.25
  WS02006228           JUNCTION     0.57     0.84     7.49     0  02:29        0.84
  WS02006229           JUNCTION     0.54     0.82     7.52     0  02:29        0.82
  WS02006280           JUNCTION     0.05     0.14     8.41     0  02:19        0.14
  WS02006284           JUNCTION     0.34     0.48     8.88     0  02:19        0.48
  WS02006287           JUNCTION     0.08     0.21     9.16     0  02:19        0.21
  WSF200               JUNCTION     0.15     0.24     5.47     0  02:37        0.24
  HS02004901           JUNCTION     0.11     0.23    10.05     0  02:16        0.23
  HS02004881           JUNCTION     0.01     0.02     9.05     0  02:18        0.02
  HS02004876           JUNCTION     0.03     0.10     9.13     0  02:17        0.10
  HS02004870           JUNCTION     0.01     0.04     9.33     0  02:19        0.04
  HS02004862           JUNCTION     0.01     0.05     9.43     0  02:20        0.05
  HS02004856           JUNCTION     0.07     0.10     9.53     0  02:19        0.10
  HS02004852           JUNCTION     0.01     0.03     9.54     0  02:20        0.03
  HS02004848           JUNCTION     0.01     0.03     9.63     0  02:19        0.03
  HS02004842           JUNCTION     0.32     0.36     9.63     0  02:18        0.36
  HS02004837           JUNCTION     0.03     0.05     9.63     0  02:18        0.05
  HS02004830           JUNCTION     0.04     0.06     9.53     0  02:19        0.06
  HS02004824           JUNCTION     0.02     0.04     9.44     0  02:22        0.04
  HS02004817           JUNCTION     0.42     0.52     9.37     0  02:19        0.52
  HS02004807           JUNCTION     0.11     0.20     9.37     0  02:19        0.20
  HS02004802           JUNCTION     0.14     0.23     9.36     0  02:19        0.23
  HS02004799           JUNCTION     0.10     0.25     9.46     0  02:17        0.25
  HS02004792           JUNCTION     0.02     0.10     9.62     0  02:16        0.10
  HS02004788           JUNCTION     0.02     0.07     9.97     0  02:17        0.07
  HS02004785           JUNCTION     0.03     0.13    10.03     0  02:17        0.13
  HS02004777           JUNCTION     0.13     0.25    10.05     0  02:16        0.25
  HS02004770           JUNCTION     0.10     0.22    10.05     0  02:16        0.22
  HS02004480           JUNCTION     0.06     0.20     9.44     0  02:17        0.20
  HS02004479           JUNCTION     0.10     0.23     9.44     0  02:17        0.23
  HS02004478           JUNCTION     0.05     0.12     9.35     0  02:18        0.12
  YS02001745           JUNCTION     0.28     0.56     8.07     0  07:34        0.56
  YS02001748           JUNCTION     0.64     1.00     8.07     0  07:34        1.00
  YS02001751           JUNCTION     0.81     1.46     8.34     0  04:38        1.19
  YS02001754           JUNCTION     1.05     1.56     8.17     0  04:38        1.46
  YS02001762           JUNCTION     1.25     1.67     8.07     0  07:34        1.67
  YS02001765           JUNCTION     1.20     1.62     8.07     0  07:34        1.62
  YS02001767           JUNCTION     1.16     1.58     8.07     0  07:34        1.58
  YS02001770           JUNCTION     1.16     1.58     8.07     0  07:34        1.58
  YS02001774           JUNCTION     1.23     1.65     8.07     0  07:34        1.65
  YS02001779           JUNCTION     0.98     1.40     8.09     0  04:12        1.39
  YS02001882           JUNCTION     0.28     0.46     7.17     0  02:56        0.46
  YS02001884           JUNCTION     0.37     0.55     7.17     0  02:56        0.55
  YS02001759           JUNCTION     1.28     1.71     8.07     0  07:34        1.71
  YS02001887           JUNCTION     0.44     0.63     7.17     0  02:56        0.63
  YS02001890           JUNCTION     0.47     0.66     7.17     0  02:57        0.66
  YS02001898           JUNCTION     0.25     0.42     7.15     0  02:57        0.42
  YS02001901           JUNCTION     0.36     0.55     7.15     0  02:58        0.55
  YS02001904           JUNCTION     0.34     0.52     7.15     0  02:58        0.52
  YS02001907           JUNCTION     0.67     0.86     7.15     0  02:58        0.86
  YS02001910           JUNCTION     0.46     0.65     7.15     0  02:57        0.65
  YS02001915           JUNCTION     0.26     0.43     7.15     0  02:58        0.43
  YS02001918           JUNCTION     0.07     0.10     7.16     0  03:03        0.10
  YS02001619           JUNCTION     0.77     1.15     8.08     0  07:35        1.15
  YS02001629           JUNCTION     1.11     1.53     8.08     0  07:35        1.53
  YS02001641           JUNCTION     1.21     1.64     8.07     0  07:34        1.64
  YS02001644           JUNCTION     1.22     1.64     8.07     0  07:34        1.64
  YS02001652           JUNCTION     1.07     1.57     8.17     0  04:29        1.48
  YS02001655           JUNCTION     0.84     1.60     8.45     0  04:29        1.22
  YS02001920           JUNCTION     0.17     0.20     7.21     0  03:02        0.20
  YS02001923           JUNCTION     0.06     0.08     7.34     0  03:02        0.08
  YS02001926           JUNCTION     0.14     0.17     7.62     0  03:01        0.17
  YS02001929           JUNCTION     0.06     0.09     7.78     0  03:01        0.09
  YS02001658           JUNCTION     0.58     0.93     8.07     0  07:33        0.93
  YS02001661           JUNCTION     0.38     0.67     8.07     0  07:33        0.67
  YS02001664           JUNCTION     0.08     0.15     8.08     0  07:33        0.15
  YS02001622           JUNCTION     0.79     1.17     8.08     0  07:35        1.17
  YS02001633           JUNCTION     1.20     1.62     8.08     0  07:34        1.62
  YS02001649           JUNCTION     1.25     1.68     8.07     0  07:34        1.68
  YS02001757           JUNCTION     1.38     1.81     8.07     0  07:34        1.81
  YS02001895           JUNCTION     0.24     0.42     7.16     0  02:57        0.42
  YS02001625           JUNCTION     1.07     1.47     8.08     0  07:35        1.47
  YS02163301           JUNCTION     1.14     1.56     8.08     0  07:35        1.56
  YS02163601           JUNCTION     1.25     1.68     8.07     0  07:34        1.68
  YS02164001           JUNCTION     1.19     1.62     8.07     0  07:34        1.62
  YS02001647           JUNCTION     1.05     1.46     8.07     0  07:34        1.46
  YSB1154              JUNCTION     0.23     0.38     9.44     0  02:17        0.38
  YSB6556              JUNCTION     0.13     0.27     9.44     0  02:17        0.27
  YSB1174              JUNCTION     0.18     0.33     9.44     0  02:17        0.33
  YSB1171              JUNCTION     0.38     0.53     9.44     0  02:17        0.53
  YS02006553           JUNCTION     0.67     0.87     7.15     0  02:57        0.87
  YS02006561           JUNCTION     0.13     0.22     6.88     0  02:59        0.22
  YS02006556           JUNCTION     0.64     0.84     7.15     0  02:57        0.84
  YS02006558           JUNCTION     0.69     0.88     7.15     0  02:57        0.88
  YS02001783           JUNCTION     0.33     0.65     6.79     0  02:42        0.65
  YS02001784           JUNCTION     0.39     0.72     6.79     0  02:42        0.69
  YS02001786           JUNCTION     0.39     0.72     6.75     0  02:42        0.69
  YS02001788           JUNCTION     0.39     0.75     6.72     0  02:42        0.75
  YS02001790           JUNCTION     0.62     1.70     7.34     0  04:50        1.04
  YS02001791           JUNCTION     0.72     1.43     6.90     0  04:50        1.17
  YS02001793           JUNCTION     1.18     1.78     6.62     0  02:41        1.78
  WS02004139           JUNCTION     0.35     0.53     5.44     0  01:21        0.53
  WSC                  OUTFALL      0.18     0.27     0.94     0  03:12        0.27
  3                    OUTFALL      0.03     0.19     6.19     0  05:30        0.19
  4                    OUTFALL      0.00     0.05     7.05     0  06:31        0.05
  5                    OUTFALL      0.00     0.00     5.00     0  00:00        0.00
  JK-storage           STORAGE      4.64     5.80     6.60     0  02:40        5.80
  CC-storage           STORAGE      0.66     1.07     8.07     0  07:35        1.07
  XR-storage           STORAGE      7.64     7.72     5.72     0  00:29        7.72
  
  
  *******************
  Node Inflow Summary
  *******************
  
  -------------------------------------------------------------------------------------------------
                                  Maximum  Maximum                  Lateral       Total        Flow
                                  Lateral    Total  Time of Max      Inflow      Inflow     Balance
                                   Inflow   Inflow   Occurrence      Volume      Volume       Error
  Node                 Type           LPS      LPS  days hr:min    10^6 ltr    10^6 ltr     Percent
  -------------------------------------------------------------------------------------------------
  WS02001211           JUNCTION      7.35   189.81     0  01:20       0.207        1.66       1.594
  WS02001212           JUNCTION      0.00   184.03     0  01:21           0        1.63       0.712
  WS02001213           JUNCTION      0.00   182.56     0  01:22           0        1.62       0.951
  WS02003069           JUNCTION      0.32   444.75     0  03:09     0.00902        5.84       0.283
  WS02003072           JUNCTION      0.00   444.60     0  03:10           0        5.82       0.378
  WS02003073           JUNCTION      1.82   446.32     0  03:11      0.0514        5.85       0.380
  WS02003060           JUNCTION     16.53   444.52     0  03:09       0.466        5.87       0.286
  WS02003066           JUNCTION      0.00   365.42     0  02:37           0        3.82       0.090
  WS02003059           JUNCTION      0.00   180.04     0  01:22           0        1.63       1.803
  WS02003067           JUNCTION      0.00   365.37     0  02:37           0        3.83       0.201
  WS02004401           JUNCTION      0.00   391.46     0  02:30           0        4.04       0.509
  WS02004402           JUNCTION      0.00   385.12     0  02:33           0        4.02       0.483
  WS02004403           JUNCTION      0.00   383.50     0  02:33           0           4       0.441
  WS02004404           JUNCTION      0.16   382.43     0  02:33     0.00457        3.99       0.335
  WS02004406           JUNCTION      0.00   381.61     0  02:33           0        3.95       0.821
  WS02004409           JUNCTION      0.00   380.76     0  02:34           0        3.92       0.341
  WS02004410           JUNCTION      0.00   376.45     0  02:35           0         3.9       0.382
  WS02004411           JUNCTION      0.00   372.03     0  02:35           0        3.89       0.392
  WS02004412           JUNCTION      0.00   368.78     0  02:36           0        3.87       0.431
  WS02004413           JUNCTION      0.00   366.00     0  02:36           0        3.86       0.657
  WS02004405           JUNCTION      0.04   381.96     0  02:33     0.00107        3.97       0.502
  WS02006109           JUNCTION      1.23   410.70     0  02:28      0.0347        4.13       0.454
  WS02006110           JUNCTION      0.00   411.33     0  02:29           0        4.11       0.490
  WS02006111           JUNCTION      0.00   419.45     0  02:29           0        4.08       0.115
  WS02006112           JUNCTION      9.00   415.67     0  02:29       0.026         4.1       0.697
  WS02006113           JUNCTION      0.00   409.99     0  02:29           0        4.09       0.243
  WS02006115           JUNCTION      0.00   410.01     0  02:30           0        4.08       0.469
  WS02006116           JUNCTION      0.00   402.26     0  02:30           0        4.06       0.447
  WS02006230           JUNCTION     10.28   381.63     0  06:33        0.29        3.24       0.352
  WS02006231           JUNCTION      0.00   375.54     0  06:33           0        2.97       0.490
  WS02006232           JUNCTION      0.00   376.19     0  06:33           0        2.98       0.555
  WS02006234           JUNCTION      0.00   378.55     0  06:32           0        2.99       0.277
  WS02006235           JUNCTION      0.00   380.85     0  06:32           0        3.05       0.358
  WS02006238           JUNCTION      0.00   294.95     0  06:33           0        2.23       0.182
  WS02006240           JUNCTION      0.00   310.28     0  06:31           0         2.2       0.602
  WS02006242           JUNCTION      0.00   322.34     0  06:31           0         2.2       0.694
  WS02006243           JUNCTION      0.00   331.65     0  06:31           0        2.19       0.236
  WS02006245           JUNCTION      0.00   339.31     0  06:31           0         2.2       0.815
  WS02006247           JUNCTION      0.00   345.78     0  06:30           0        2.21       0.336
  WS02006248           JUNCTION      0.00   350.96     0  06:30           0        2.21      -0.026
  WS02006249           JUNCTION      0.00   381.17     0  06:30           0        2.23       0.768
  WS02006239           JUNCTION      0.00   299.24     0  06:32           0        2.21      -0.066
  WS02006251           JUNCTION      0.08   400.04     0  06:30     0.00217        2.27       0.353
  WS02006252           JUNCTION      0.00   399.80     0  06:30           0        2.09       0.023
  WS02006253           JUNCTION      1.37    42.96     0  02:21     0.00336       0.175       2.400
  WS02006256           JUNCTION      0.00   599.93     0  05:30           0        1.72       0.189
  WS02004138           JUNCTION      0.00   189.94     0  04:50           0        1.45       0.036
  WS02004407           JUNCTION      0.00   381.03     0  02:34           0        3.92       0.170
  WS02006228           JUNCTION      0.00   409.58     0  02:28           0        4.11       0.364
  WS02006229           JUNCTION      0.00   412.89     0  02:28           0        4.13       0.353
  WS02006280           JUNCTION      0.00   205.18     0  02:19           0       0.897       0.008
  WS02006284           JUNCTION      0.10   205.18     0  02:19      0.0027       0.898       0.118
  WS02006287           JUNCTION      0.00   205.07     0  02:19           0       0.896       0.081
  WSF200               JUNCTION      0.00   365.40     0  02:37           0        3.82       0.075
  HS02004901           JUNCTION     11.14    11.14     0  02:11      0.0313      0.0314       5.928
  HS02004881           JUNCTION      4.51    38.86     0  02:18      0.0136       0.143       0.117
  HS02004876           JUNCTION      7.19    34.66     0  02:18      0.0261        0.13       0.407
  HS02004870           JUNCTION      7.96    27.60     0  02:18      0.0258       0.104       0.103
  HS02004862           JUNCTION      6.57    20.16     0  02:19      0.0314      0.0786       0.216
  HS02004856           JUNCTION      5.90    13.64     0  02:18      0.0194      0.0486       3.051
  HS02004852           JUNCTION      0.00     8.10     0  02:19           0      0.0292       0.174
  HS02004848           JUNCTION     13.12    13.12     0  02:22      0.0615      0.0615       0.072
  HS02004842           JUNCTION      0.00     5.46     0  02:32           0      0.0453      40.264
  HS02004837           JUNCTION     19.11    23.75     0  02:18       0.224       0.256       0.318
  HS02004830           JUNCTION      0.15    23.88     0  02:18     0.00423       0.247       0.502
  HS02004824           JUNCTION     14.79    38.49     0  02:22      0.0805       0.326       0.166
  HS02004817           JUNCTION      0.60    39.08     0  02:22      0.0169       0.342       5.117
  HS02004807           JUNCTION     14.97    52.72     0  02:20      0.0475       0.373       1.146
  HS02004802           JUNCTION      0.00    53.01     0  02:21           0       0.369       1.114
  HS02004799           JUNCTION     11.53   129.88     0  02:16      0.0384       0.465       0.490
  HS02004792           JUNCTION     51.47   118.58     0  02:16       0.168       0.427       0.097
  HS02004788           JUNCTION     17.31    69.08     0  02:17         0.1       0.261       0.151
  HS02004785           JUNCTION      0.15    52.12     0  02:16     0.00423       0.162       0.299
  HS02004777           JUNCTION      0.03    52.40     0  02:15    0.000846       0.162       3.291
  HS02004770           JUNCTION     43.62    53.57     0  02:13       0.134       0.163       1.934
  HS02004480           JUNCTION      0.00   153.16     0  02:17           0       0.543       0.134
  HS02004479           JUNCTION      0.00    23.74     0  02:19           0      0.0899       0.818
  HS02004478           JUNCTION      0.00   205.06     0  02:18           0       0.897       0.070
  YS02001745           JUNCTION     76.22   131.28     0  04:32       0.821       0.873       0.881
  YS02001748           JUNCTION      0.04   252.40     0  04:11     0.00127       0.924       2.347
  YS02001751           JUNCTION      0.01   258.03     0  04:10     0.00031       0.853       2.662
  YS02001754           JUNCTION      0.26   127.94     0  04:08     0.00733       0.784       3.030
  YS02001762           JUNCTION      0.00   116.38     0  02:55           0       0.885       2.443
  YS02001765           JUNCTION      0.00   121.40     0  02:55           0       0.887       2.811
  YS02001767           JUNCTION      0.54   136.54     0  02:56      0.0151       0.909       4.077
  YS02001770           JUNCTION     97.68   145.51     0  02:55        0.96       0.997       3.291
  YS02001774           JUNCTION      0.00    51.48     0  02:54           0       0.111      29.518
  YS02001779           JUNCTION      0.01    50.20     0  02:55    0.000141      0.0493      41.906
  YS02001882           JUNCTION      0.00     3.94     0  02:10           0     0.00528      46.513
  YS02001884           JUNCTION      0.00    11.33     0  02:07           0      0.0212      29.926
  YS02001759           JUNCTION     95.32   216.01     0  02:52       0.896        1.75       1.352
  YS02001887           JUNCTION    125.09   125.09     0  02:45        1.07        1.08       0.667
  YS02001890           JUNCTION      0.00   125.00     0  02:52           0        1.06       0.748
  YS02001898           JUNCTION      0.00   124.81     0  02:51           0        1.04       0.211
  YS02001901           JUNCTION      0.00   124.74     0  02:51           0        1.04       0.531
  YS02001904           JUNCTION      0.00   124.24     0  02:50           0        1.04       0.494
  YS02001907           JUNCTION      0.00   228.14     0  02:59           0        2.23       0.997
  YS02001910           JUNCTION      0.00   104.15     0  02:59           0         1.2       0.853
  YS02001915           JUNCTION     68.22   102.76     0  03:01       0.702        1.21       0.379
  YS02001918           JUNCTION      0.00    34.80     0  03:02           0       0.504       0.224
  YS02001619           JUNCTION     66.37    66.37     0  03:01       0.693       0.696       1.780
  YS02001629           JUNCTION      0.00   156.66     0  04:23           0        0.65       4.608
  YS02001641           JUNCTION      0.00   156.95     0  02:55           0        1.32       1.626
  YS02001644           JUNCTION     72.40   227.10     0  02:55       0.788        2.08       1.284
  YS02001652           JUNCTION      0.00   110.91     0  02:48           0       0.735       3.189
  YS02001655           JUNCTION      0.15   243.13     0  04:08     0.00434       0.794       3.062
  YS02001920           JUNCTION      2.87    34.82     0  03:02      0.0809       0.506       0.405
  YS02001923           JUNCTION      0.04    31.96     0  03:02     0.00106       0.425       0.071
  YS02001926           JUNCTION      0.05    31.99     0  03:01     0.00147       0.426       0.507
  YS02001929           JUNCTION     31.96    31.96     0  03:01       0.425       0.425       0.069
  YS02001658           JUNCTION      0.00   218.91     0  04:29           0       0.897       2.508
  YS02001661           JUNCTION      0.00   175.84     0  04:07           0       0.874       1.697
  YS02001664           JUNCTION     88.77    88.77     0  02:48       0.783       0.785       0.120
  YS02001622           JUNCTION      0.00    96.17     0  03:10           0       0.721       4.616
  YS02001633           JUNCTION     73.59   160.41     0  02:56       0.811        1.38       2.320
  YS02001649           JUNCTION      0.00   327.98     0  02:55           0        2.72       1.402
  YS02001757           JUNCTION      0.00   555.54     0  02:57           0        5.12       1.826
  YS02001895           JUNCTION      0.00   124.79     0  02:51           0        1.05       0.356
  YS02001625           JUNCTION      0.00   157.35     0  04:23           0       0.723       5.626
  YS02163301           JUNCTION      0.00   114.21     0  03:11           0       0.594       4.161
  YS02163601           JUNCTION      0.11   153.97     0  02:56      0.0031        1.34       2.281
  YS02164001           JUNCTION      0.00   152.12     0  02:56           0        1.32       1.547
  YS02001647           JUNCTION      0.00   229.09     0  03:00           0        2.04       1.367
  YSB1154              JUNCTION     12.79    12.79     0  02:16      0.0465      0.0479       3.108
  YSB6556              JUNCTION      0.00    12.78     0  02:18           0      0.0489       2.613
  YSB1174              JUNCTION     12.68    12.68     0  02:10      0.0339       0.035       3.812
  YSB1171              JUNCTION      0.00    23.69     0  02:16           0      0.0894       7.605
  YS02006553           JUNCTION      0.00   228.20     0  02:59           0        2.22       0.647
  YS02006561           JUNCTION      0.00   337.30     0  02:58           0        3.15       0.022
  YS02006556           JUNCTION      0.00   228.02     0  02:59           0        2.23       0.467
  YS02006558           JUNCTION    106.10   332.87     0  02:59       0.975        3.17       0.141
  YS02001783           JUNCTION      0.00   332.80     0  02:59           0        3.15       0.050
  YS02001784           JUNCTION      1.06   386.36     0  02:42      0.0299        3.17       0.080
  YS02001786           JUNCTION      0.06   381.31     0  02:43     0.00159        3.17       0.079
  YS02001788           JUNCTION      0.07   407.56     0  02:43       0.002        3.17       0.043
  YS02001790           JUNCTION      0.15   383.02     0  02:42     0.00437        3.18       0.020
  YS02001791           JUNCTION      0.00   383.29     0  02:42           0        3.18       0.024
  YS02001793           JUNCTION      0.00   383.53     0  02:42           0        3.19       0.004
  WS02004139           JUNCTION      0.32   189.65     0  01:20     0.00905        1.47       1.469
  WSC                  OUTFALL       0.00   446.06     0  03:12           0        5.83       0.000
  3                    OUTFALL       0.00   466.57     0  05:30           0       0.861       0.000
  4                    OUTFALL       0.00    29.04     0  06:31           0     0.00442       0.000
  5                    OUTFALL       0.00     0.00     0  00:00           0           0       0.000 ltr
  JK-storage           STORAGE       0.00   509.77     0  02:35           0        3.34      -0.491
  CC-storage           STORAGE       0.00   555.21     0  02:58           0        5.03       0.543
  XR-storage           STORAGE     323.40   323.40     0  02:59        7.02        7.62       0.009
  
  
  **********************
  Node Surcharge Summary
  **********************
  
  Surcharging occurs when water rises above the top of the highest conduit.
  ---------------------------------------------------------------------
                                               Max. Height   Min. Depth
                                   Hours       Above Crown    Below Rim
  Node                 Type      Surcharged         Meters       Meters
  ---------------------------------------------------------------------
  WS02006109           JUNCTION        0.05          0.013        1.807
  WS02006232           JUNCTION        0.05          0.007        1.473
  WS02006252           JUNCTION        0.18          0.185        0.915
  WS02006228           JUNCTION        0.04          0.012        2.188
  YS02001751           JUNCTION        2.87          0.462        0.738
  YS02001754           JUNCTION        3.96          0.515        0.635
  YS02001762           JUNCTION        5.09          0.673        0.477
  YS02001765           JUNCTION        4.96          0.623        0.477
  YS02001767           JUNCTION        4.80          0.584        0.446
  YS02001770           JUNCTION        4.53          0.548        0.372
  YS02001774           JUNCTION        5.05          0.651        0.399
  YS02001779           JUNCTION        3.74          0.402        0.278
  YS02001759           JUNCTION        5.16          0.709        0.501
  YS02001619           JUNCTION        2.37          0.148        0.462
  YS02001629           JUNCTION        2.35          0.147        0.323
  YS02001641           JUNCTION        5.03          0.637        0.463
  YS02001644           JUNCTION        5.03          0.642        0.278
  YS02001652           JUNCTION        4.08          0.539        0.591
  YS02001655           JUNCTION        3.06          0.605        0.595
  YS02001622           JUNCTION        2.64          0.173        0.447
  YS02001633           JUNCTION        4.92          0.601        0.459
  YS02001649           JUNCTION        5.12          0.683        0.367
  YS02001757           JUNCTION        5.31          0.812        0.398
  YS02001625           JUNCTION        4.24          0.472        0.308
  YS02163301           JUNCTION        4.60          0.559        0.471
  YS02163601           JUNCTION        5.12          0.677        0.403
  YS02164001           JUNCTION        4.98          0.616        0.484
  YS02001647           JUNCTION        4.17          0.463        0.437
  YS02001790           JUNCTION        3.12          0.898        0.259
  YS02001791           JUNCTION        3.64          0.630        1.290
  YS02001793           JUNCTION        4.22          0.784        1.816
  
  
  *********************
  Node Flooding Summary
  *********************
  
  Flooding refers to all water that overflows a node, whether it ponds or not.
  --------------------------------------------------------------------------
                                                             Total   Maximum
                                 Maximum   Time of Max       Flood    Ponded
                        Hours       Rate    Occurrence      Volume     Depth
  Node                 Flooded       LPS   days hr:min    10^6 ltr    Meters
  --------------------------------------------------------------------------
  JK-storage              2.64    383.63      0  02:42       1.561     0.000
  XR-storage              7.35    322.62      0  02:50       5.237     0.000
  
  
  **********************
  Storage Volume Summary
  **********************
  
  --------------------------------------------------------------------------------------------------
                         Average     Avg  Evap Exfil       Maximum     Max    Time of Max    Maximum
                          Volume    Pcnt  Pcnt  Pcnt        Volume    Pcnt     Occurrence    Outflow
  Storage Unit           1000 m3    Full  Loss  Loss       1000 m3    Full    days hr:min        LPS
  --------------------------------------------------------------------------------------------------
  JK-storage               0.233      80     0     0         0.291     100       0  02:40     599.93
  CC-storage               1.844      12     0     0         2.981      19       0  07:35     399.80
  XR-storage               0.917      99     0     0         0.926     100       0  00:29     189.94
  
  
  ***********************
  Outfall Loading Summary
  ***********************
  
  -----------------------------------------------------------
                         Flow       Avg       Max       Total
                         Freq      Flow      Flow      Volume
  Outfall Node           Pcnt       LPS       LPS    10^6 ltr
  -----------------------------------------------------------
  WSC                   99.99    231.17    446.06       5.832
  3                     33.93    151.34    466.57       0.861
  4                      2.30     13.17     29.04       0.004
  5                      0.00      0.00      0.00       0.000
  -----------------------------------------------------------
  System                34.06    395.69    639.24       6.698
  
  
  ********************
  Link Flow Summary
  ********************
  
  -----------------------------------------------------------------------------
                                 Maximum  Time of Max   Maximum    Max/    Max/
                                  |Flow|   Occurrence   |Veloc|    Full    Full
  Link                 Type          LPS  days hr:min     m/sec    Flow   Depth
  -----------------------------------------------------------------------------
  WS02003066WSF200     CONDUIT    365.40     0  02:37      2.57    0.06    0.18
  WS02006287WS02006284 CONDUIT    205.08     0  02:19      1.62    0.10    0.22
  WS02006284WS02006280 CONDUIT    205.18     0  02:19      1.86    0.09    0.20
  WS02006280WS02006229 CONDUIT    205.19     0  02:19      2.99    0.04    0.14
  WS02006229WS02006228 CONDUIT    409.58     0  02:28      0.83    1.36    1.00
  WS02006256WS02006235 CONDUIT    166.25     0  00:01      2.58    1.76    1.00
  WS02006253WS02006251 CONDUIT     53.15     0  02:24      0.49    0.16    0.83
  WS02006252WS02006251 CONDUIT    399.97     0  06:30      3.18    1.47    1.00
  WS02006251WS02006249 CONDUIT    381.17     0  06:30      1.15    1.10    0.80
  WS02006249WS02006248 CONDUIT    350.96     0  06:30      1.21    1.92    0.75
  WS02006248WS02006247 CONDUIT    345.78     0  06:30      1.21    0.75    0.77
  WS02006247WS02006245 CONDUIT    339.31     0  06:31      1.16    2.69    0.79
  WS02006245WS02006243 CONDUIT    331.65     0  06:31      1.24    0.98    0.79
  WS02006243WS02006242 CONDUIT    322.34     0  06:31      1.13    0.69    0.88
  WS02006242WS02006240 CONDUIT    310.28     0  06:31      1.02    1.23    0.93
  WS02006240WS02006239 CONDUIT    299.24     0  06:32      1.14    0.94    0.90
  WS02006239WS02006238 CONDUIT    294.95     0  06:33      0.93    0.94    0.97
  WS02006238WS02006235 CONDUIT    294.16     0  06:33      1.25    0.66    0.98
  WS02006235WS02006234 CONDUIT    378.55     0  06:32      1.08    3.99    0.92
  WS02006234WS02006232 CONDUIT    376.19     0  06:33      1.13    0.76    0.96
  WS02006232WS02006231 CONDUIT    375.54     0  06:33      1.05    0.79    0.89
  WS02006231WS02006230 CONDUIT    371.35     0  06:33      1.36    5.63    0.70
  WS02006230WS02006229 CONDUIT    378.73     0  06:34      0.98    8.43    1.00
  WS02006228WS02006109 CONDUIT    409.47     0  02:28      0.81    1.79    1.00
  WS02006116WS02004401 CONDUIT    391.46     0  02:30      0.73    0.54    0.71
  WS02006115WS02006116 CONDUIT    402.26     0  02:30      0.83    0.52    0.63
  WS02006113WS02006111 CONDUIT    419.45     0  02:29      2.24    0.50    0.40
  WS02006112WS02006115 CONDUIT    410.01     0  02:30      0.67    0.24    0.75
  WS02006111WS02006112 CONDUIT    409.81     0  02:29      1.32    0.19    0.65
  WS02006110WS02006113 CONDUIT    409.99     0  02:29      1.02    0.37    0.74
  WS02006109WS02006110 CONDUIT    411.33     0  02:29      0.84    0.79    0.94
  WS02004411WS02004412 CONDUIT    368.78     0  02:36      0.78    0.52    0.58
  WS02004401WS02004402 CONDUIT    385.12     0  02:33      0.77    0.46    0.74
  WS02004413WS02003067 CONDUIT    365.37     0  02:37      0.90    0.16    0.51
  WS02004412WS02004413 CONDUIT    366.00     0  02:36      0.65    0.25    0.67
  WS02004410WS02004411 CONDUIT    372.03     0  02:35      0.83    0.51    0.57
  WS02004409WS02004410 CONDUIT    376.45     0  02:35      0.88    0.49    0.55
  WS02004407WS02004409 CONDUIT    380.76     0  02:34      1.37    0.13    0.39
  WS02004406WS02004407 CONDUIT    381.03     0  02:34      0.85    0.17    0.56
  WS02004405WS02004406 CONDUIT    381.61     0  02:33      0.66    0.75    0.86
  WS02004404WS02004405 CONDUIT    381.92     0  02:33      0.84    3.74    0.86
  WS02004403WS02004404 CONDUIT    382.27     0  02:33      0.74    0.28    0.82
  WS02004402WS02004403 CONDUIT    383.50     0  02:33      0.75    0.55    0.77
  WS02004139WS02001211 CONDUIT    182.46     0  01:20      0.40    0.23    0.43
  WS02004138WS02004139 CONDUIT    189.33     0  01:20      1.02    0.04    0.31
  WS02003067WS02003066 CONDUIT    365.42     0  02:37      0.97    0.12    0.37
  WS02001213WS02003059 CONDUIT    180.04     0  01:22      0.45    0.30    0.55
  WS02001212WS02001213 CONDUIT    182.56     0  01:22      1.00    0.28    0.28
  WS02001211WS02001212 CONDUIT    184.03     0  01:21      0.52    0.14    0.46
  WS02003072WS02003073 CONDUIT    444.50     0  03:11      1.33    0.96    0.34
  WS02003069WS02003072 CONDUIT    444.60     0  03:10      1.28    0.21    0.35
  WS02003060WS02003069 CONDUIT    444.43     0  03:09      1.56    0.17    0.30
  WS02003059WS02003060 CONDUIT    177.09     0  01:24      0.64    0.12    0.47
  HS02004901HS02004770 CONDUIT     10.28     0  02:16      0.05    0.04    0.32
  HS02004876HS02004881 CONDUIT     34.73     0  02:19      0.56    0.37    0.09
  HS02004870HS02004876 CONDUIT     27.59     0  02:19      0.39    0.02    0.10
  HS02004842HS02004848 CONDUIT      5.46     0  02:32      0.03    0.00    0.27
  HS02004837HS02004842 CONDUIT      5.63     0  02:32      0.41    0.00    0.29
  HS02004830HS02004837 CONDUIT     23.73     0  02:18      0.44    0.02    0.08
  HS02004824HS02004830 CONDUIT     23.88     0  02:19      0.48    0.03    0.07
  HS02004817HS02004824 CONDUIT     38.48     0  02:22      0.17    0.02    0.40
  HS02004770HS02004777 CONDUIT     52.37     0  02:15      0.23    0.10    0.33
  HS02004799HS02004480 CONDUIT    129.69     0  02:17      0.59    0.16    0.31
  HS02004792HS02004799 CONDUIT    118.52     0  02:16      0.68    0.07    0.25
  HS02004788HS02004792 CONDUIT     69.02     0  02:17      0.83    0.05    0.12
  HS02004785HS02004788 CONDUIT     52.02     0  02:17      0.51    0.39    0.14
  HS02004777HS02004785 CONDUIT     51.97     0  02:16      0.27    0.06    0.27
  HS02004480HS02004478 CONDUIT    153.12     0  02:17      0.96    0.64    0.23
  HS02004479HS02004480 CONDUIT     23.96     0  02:19      0.16    0.02    0.31
  HS02004862HS02004870 CONDUIT     20.13     0  02:20      0.47    0.02    0.06
  HS02004848HS02004852 CONDUIT      8.10     0  02:19      0.31    0.01    0.04
  HS02004856HS02004862 CONDUIT     13.62     0  02:19      0.34    0.01    0.06
  HS02004852HS02004856 CONDUIT      8.07     0  02:20      0.12    0.01    0.09
  HS02004802HS02004478 CONDUIT     53.38     0  02:22      0.30    0.05    0.26
  HS02004478WS02006287 CONDUIT    205.07     0  02:19      1.32    0.06    0.17
  HS02004817HS02004807 CONDUIT     39.63     0  02:24      0.11    0.02    0.51
  HS02004807HS02004802 CONDUIT     53.01     0  02:21      0.25    0.10    0.30
  YS02001759YS02001757 CONDUIT    218.84     0  02:52      0.28    0.16    1.00
  YS02001762YS02001759 CONDUIT    120.68     0  02:52      0.17    0.14    1.00
  YS02001765YS02001762 CONDUIT    116.38     0  02:55      0.23    0.11    1.00
  YS02001770YS02001767 CONDUIT    136.01     0  02:56      0.32    0.54    1.00
  YS02001774YS02001770 CONDUIT     51.48     0  02:54      0.15    0.03    1.00
  YS02001779YS02001774 CONDUIT     50.20     0  02:55      0.07    0.03    1.00
  YS02001649YS02001757 CONDUIT    327.81     0  03:04      0.42    0.20    1.00
  YS02001767YS02001765 CONDUIT    121.40     0  02:55      0.26    0.15    1.00
  YS02006561YS02001783 CONDUIT    332.80     0  02:59      1.78    0.17    0.55
  YS02001783YS02001784 CONDUIT    385.30     0  02:42      1.23    0.53    0.83
  YS02001784YS02001785 CONDUIT    381.25     0  02:43      1.31    0.89    0.90
  YS02001788YS02001790 CONDUIT    382.87     0  02:42      1.86    0.28    0.97
  YS02001790YS02001791 CONDUIT    383.29     0  02:42      2.18    0.42    1.00
  YS02001791YS02001793 CONDUIT    383.53     0  02:42      4.26    0.16    1.00
  YS02001910YS02001907 CONDUIT    104.39     0  02:59      0.49    0.06    0.75
  YS02001786YS02001788 CONDUIT    407.49     0  02:43      1.76    0.79    0.90
  YS02001915YS02001910 CONDUIT    104.15     0  02:59      0.44    0.05    0.54
  YS02001918YS02001915 CONDUIT     34.78     0  03:03      0.44    0.02    0.26
  YS02001923YS02001920 CONDUIT     31.95     0  03:02      0.46    0.01    0.14
  YS02001926YS02001923 CONDUIT     31.92     0  03:02      0.50    0.05    0.14
  YS02001929YS02001926 CONDUIT     31.94     0  03:01      0.53    0.02    0.13
  YS02001920YS02001918 CONDUIT     34.80     0  03:02      0.47    0.03    0.15
  YS02001629YS02163301 CONDUIT    114.21     0  03:11      0.15    0.14    1.00
  YS02001619YS02001622 CONDUIT     96.17     0  03:10      0.65    0.14    1.00
  YS02001622YS02001625 CONDUIT    157.35     0  04:23      0.25    0.08    1.00
  YS02001625YS02001629 CONDUIT    156.66     0  04:23      0.25    0.07    1.00
  YS02163301YS02001633 CONDUIT     92.29     0  03:13      0.12    0.09    1.00
  YS02163601YS02164001 CONDUIT    152.12     0  02:56      0.19    0.13    1.00
  YS02164001YS02001641 CONDUIT    156.95     0  02:55      0.20    0.21    1.00
  YS02001641YS02001644 CONDUIT    157.30     0  03:13      0.20    0.51    1.00
  YS02001647YS02001649 CONDUIT    254.41     0  03:14      0.33    0.13    1.00
  YS02006553YS02006556 CONDUIT    228.02     0  02:59      0.33    0.20    0.83
  YS02006556YS02006558 CONDUIT    227.87     0  02:59      0.32    0.18    0.86
  YSB6556YSB1171       CONDUIT     12.95     0  02:20      0.06    0.01    0.57
  YS02001907YS02006553 CONDUIT    228.20     0  02:59      0.27    0.27    0.95
  YS02006558YS02006561 CONDUIT    337.30     0  02:58      2.37    0.75    0.50
  YS02001633YS02163601 CONDUIT    153.86     0  02:56      0.20    0.16    1.00
  YS02001644YS02001647 CONDUIT    229.09     0  03:00      0.30    0.13    1.00
  YS02001745YS02001748 CONDUIT    175.44     0  04:11      1.41    0.07    0.74
  YS02001748YS02001751 CONDUIT    251.02     0  04:13      1.09    0.13    1.00
  YS02001751YS02001754 CONDUIT    127.68     0  04:08      0.96    0.06    1.00
  YS02001754YS02001757 CONDUIT    133.81     0  04:08      0.33    0.05    1.00
  YS02001882YS02001884 CONDUIT      3.94     0  02:10      0.06    0.00    0.48
  YS02001884YS02001887 CONDUIT     11.33     0  02:07      0.06    0.02    0.57
  YS02001890YS02001895 CONDUIT    124.79     0  02:51      0.29    0.06    0.54
  YS02001895YS02001898 CONDUIT    124.81     0  02:51      0.48    0.22    0.40
  YS02001898YS02001901 CONDUIT    124.74     0  02:51      0.33    0.08    0.48
  YS02001901YS02001904 CONDUIT    124.24     0  02:50      0.29    0.19    0.53
  YS02001904YS02001907 CONDUIT    124.21     0  02:50      0.21    0.04    0.69
  YS02001887YS02001890 CONDUIT    125.00     0  02:52      0.24    0.21    0.62
  YS02001652YS02001649 CONDUIT    152.67     0  03:09      0.32    0.08    1.00
  YS02001655YS02001652 CONDUIT    110.91     0  02:48      1.04    0.05    1.00
  YS02001658YS02001655 CONDUIT    213.58     0  04:08      1.26    0.09    0.97
  YS02001661YS02001658 CONDUIT    200.26     0  04:01      1.46    0.08    0.77
  YS02001664YS02001661 CONDUIT     88.76     0  02:48      1.13    0.03    0.41
  YSB1154YSB6556       CONDUIT     12.78     0  02:18      0.19    0.02    0.46
  YSB1174YSB1171       CONDUIT     11.77     0  02:11      0.05    0.02    0.58
  YSB1171HS02004479    CONDUIT     23.74     0  02:19      0.54    0.02    0.45
  HS02004881HS02006253 CONDUIT     38.86     0  02:18      1.66    0.01    0.19
  YS02001793JiankangQianchi CONDUIT    509.77     0  02:35      4.54    0.04    1.00
  YS02001757CaochengTiaoxuchi CONDUIT    555.21     0  02:58      1.09    0.24    1.00
  WSF200WS02003060     CONDUIT    365.55     0  02:37      1.76    0.08    0.24
  1                    CONDUIT    446.06     0  03:12      2.66    0.16    0.27
  2                    CONDUIT     29.04     0  06:31      3.39    0.07    0.18
  3                    CONDUIT    466.57     0  05:30      9.68    0.74    0.65
  4                    CONDUIT      0.00     0  00:00      0.00    0.00    0.00
  CC-Pump-1            PUMP       200.00     0  07:40              1.00
  CC-Pump-2            PUMP       200.00     0  04:00              1.00
  JK-Pump-1            PUMP       300.00     0  00:00              1.00
  JK-Pump-2            PUMP       300.00     0  03:00              1.00
  XR-Pump-1            PUMP        95.00     0  01:00              1.00
  XR-Pump-2            PUMP         0.00     0  00:00              0.00
  XR-Pump-3            PUMP        94.97     0  07:30              1.00
  XR-Pump-4            PUMP        94.99     0  06:00              1.00
  
  
  ***************************
  Flow Classification Summary
  ***************************
  
  -------------------------------------------------------------------------------------
                      Adjusted    ---------- Fraction of Time in Flow Class ---------- 
                       /Actual         Up    Down  Sub   Sup   Up    Down  Norm  Inlet 
  Conduit               Length    Dry  Dry   Dry   Crit  Crit  Crit  Crit  Ltd   Ctrl  
  -------------------------------------------------------------------------------------
  WS02003066WSF200        1.00   0.08  0.00  0.00  0.00  0.92  0.00  0.00  0.75  0.00
  WS02006287WS02006284    1.00   0.05  0.02  0.00  0.68  0.25  0.00  0.00  0.77  0.00
  WS02006284WS02006280    1.00   0.06  0.00  0.00  0.00  0.00  0.00  0.94  0.00  0.00
  WS02006280WS02006229    1.00   0.06  0.00  0.00  0.00  0.00  0.00  0.94  0.00  0.00
  WS02006229WS02006228    1.00   0.00  0.00  0.00  0.98  0.00  0.00  0.02  0.00  0.00
  WS02006256WS02006235    1.00   0.00  0.00  0.00  1.00  0.00  0.00  0.00  0.00  0.00
  WS02006253WS02006251    1.00   0.04  0.02  0.00  0.94  0.00  0.00  0.00  0.00  0.00
  WS02006252WS02006251    1.00   0.11  0.00  0.00  0.00  0.00  0.89  0.00  0.00  0.00
  WS02006251WS02006249    1.00   0.00  0.00  0.00  1.00  0.00  0.00  0.00  0.38  0.00
  WS02006249WS02006248    1.00   0.00  0.03  0.00  0.76  0.00  0.21  0.00  0.00  0.00
  WS02006248WS02006247    1.00   0.03  0.00  0.00  0.97  0.00  0.00  0.00  0.31  0.00
  WS02006247WS02006245    1.00   0.03  0.00  0.00  0.96  0.00  0.00  0.01  0.00  0.00
  WS02006245WS02006243    1.00   0.02  0.01  0.00  0.88  0.00  0.00  0.09  0.02  0.00
  WS02006243WS02006242    1.00   0.01  0.01  0.00  0.99  0.00  0.00  0.00  0.41  0.00
  WS02006242WS02006240    1.00   0.01  0.00  0.00  0.99  0.00  0.00  0.00  0.00  0.00
  WS02006240WS02006239    1.00   0.00  0.00  0.00  0.92  0.00  0.00  0.07  0.02  0.00
  WS02006239WS02006238    1.00   0.00  0.00  0.00  1.00  0.00  0.00  0.00  0.07  0.00
  WS02006238WS02006235    1.00   0.00  0.00  0.00  1.00  0.00  0.00  0.00  0.00  0.00
  WS02006235WS02006234    1.00   0.00  0.00  0.00  0.94  0.00  0.06  0.00  0.00  0.00
  WS02006234WS02006232    1.00   0.00  0.00  0.00  1.00  0.00  0.00  0.00  0.14  0.00
  WS02006232WS02006231    1.00   0.00  0.00  0.00  0.99  0.00  0.01  0.00  0.00  0.00
  WS02006231WS02006230    1.00   0.00  0.00  0.00  0.17  0.00  0.83  0.00  0.00  0.00
  WS02006230WS02006229    1.00   0.00  0.00  0.00  0.98  0.00  0.00  0.02  0.01  0.00
  WS02006228WS02006109    1.00   0.00  0.00  0.00  0.99  0.00  0.00  0.00  0.00  0.00
  WS02006116WS02004401    1.00   0.03  0.00  0.00  0.97  0.00  0.00  0.00  0.00  0.00
  WS02006115WS02006116    1.00   0.03  0.00  0.00  0.96  0.00  0.00  0.01  0.00  0.00
  WS02006113WS02006111    1.00   0.03  0.00  0.00  0.00  0.97  0.00  0.00  0.17  0.00
  WS02006112WS02006115    1.00   0.03  0.00  0.00  0.96  0.00  0.00  0.00  0.00  0.00
  WS02006111WS02006112    1.00   0.03  0.00  0.00  0.97  0.00  0.00  0.00  0.98  0.00
  WS02006110WS02006113    1.00   0.02  0.01  0.00  0.97  0.00  0.00  0.00  0.00  0.00
  WS02006109WS02006110    1.00   0.00  0.01  0.00  0.98  0.00  0.01  0.00  0.00  0.00
  WS02004411WS02004412    1.00   0.05  0.00  0.00  0.95  0.00  0.00  0.00  0.00  0.00
  WS02004401WS02004402    1.00   0.03  0.00  0.00  0.97  0.00  0.00  0.00  0.00  0.00
  WS02004413WS02003067    1.00   0.06  0.02  0.00  0.00  0.00  0.93  0.00  0.00  0.00
  WS02004412WS02004413    1.00   0.05  0.00  0.00  0.95  0.00  0.00  0.00  0.03  0.00
  WS02004410WS02004411    1.00   0.05  0.00  0.00  0.95  0.00  0.00  0.00  0.04  0.00
  WS02004409WS02004410    1.00   0.05  0.00  0.00  0.95  0.00  0.00  0.00  0.04  0.00
  WS02004407WS02004409    1.00   0.05  0.00  0.00  0.95  0.00  0.00  0.00  0.89  0.00
  WS02004406WS02004407    1.00   0.00  0.05  0.00  0.95  0.00  0.00  0.00  0.00  0.00
  WS02004405WS02004406    1.00   0.00  0.00  0.00  1.00  0.00  0.00  0.00  0.00  0.00
  WS02004404WS02004405    1.00   0.00  0.00  0.00  1.00  0.00  0.00  0.00  0.00  0.00
  WS02004403WS02004404    1.00   0.00  0.04  0.00  0.96  0.00  0.00  0.00  0.01  0.00
  WS02004402WS02004403    1.00   0.04  0.00  0.00  0.96  0.00  0.00  0.00  0.00  0.00
  WS02004139WS02001211    1.00   0.00  0.01  0.00  0.99  0.00  0.00  0.00  0.00  0.00
  WS02004138WS02004139    1.00   0.03  0.06  0.00  0.92  0.00  0.00  0.00  0.96  0.00
  WS02003067WS02003066    1.00   0.07  0.01  0.00  0.92  0.00  0.00  0.00  0.00  0.00
  WS02001213WS02003059    1.00   0.00  0.01  0.00  0.99  0.00  0.00  0.00  0.00  0.00
  WS02001212WS02001213    1.00   0.04  0.00  0.00  0.41  0.00  0.55  0.00  0.00  0.00
  WS02001211WS02001212    1.00   0.00  0.04  0.00  0.96  0.00  0.00  0.00  0.00  0.00
  WS02003072WS02003073    1.00   0.00  0.00  0.00  0.00  0.00  0.00  1.00  0.00  0.00
  WS02003069WS02003072    1.00   0.00  0.00  0.00  0.99  0.01  0.00  0.00  0.89  0.00
  WS02003060WS02003069    1.00   0.00  0.00  0.00  0.97  0.03  0.00  0.00  0.56  0.00
  WS02003059WS02003060    1.00   0.00  0.00  0.00  0.99  0.01  0.00  0.00  0.06  0.00
  HS02004901HS02004770    1.00   0.06  0.00  0.00  0.94  0.00  0.00  0.00  0.02  0.00
  HS02004876HS02004881    1.00   0.03  0.00  0.00  0.97  0.00  0.00  0.00  0.00  0.00
  HS02004870HS02004876    1.00   0.01  0.00  0.00  0.99  0.00  0.00  0.00  0.95  0.00
  HS02004842HS02004848    1.00   0.00  0.06  0.00  0.94  0.00  0.00  0.00  0.68  0.00
  HS02004837HS02004842    1.00   0.00  0.00  0.00  0.99  0.01  0.00  0.00  0.11  0.00
  HS02004830HS02004837    1.00   0.00  0.00  0.00  1.00  0.00  0.00  0.00  0.99  0.00
  HS02004824HS02004830    1.00   0.00  0.00  0.00  1.00  0.00  0.00  0.00  0.00  0.00
  HS02004817HS02004824    1.00   0.00  0.00  0.00  1.00  0.00  0.00  0.00  1.00  0.00
  HS02004770HS02004777    1.00   0.00  0.06  0.00  0.94  0.00  0.00  0.00  0.07  0.00
  HS02004799HS02004480    1.00   0.00  0.03  0.00  0.92  0.00  0.04  0.00  0.00  0.00
  HS02004792HS02004799    1.00   0.00  0.00  0.00  0.98  0.02  0.00  0.00  0.98  0.00
  HS02004788HS02004792    1.00   0.00  0.00  0.00  0.98  0.02  0.00  0.00  0.98  0.00
  HS02004785HS02004788    1.00   0.00  0.00  0.00  1.00  0.00  0.00  0.00  0.00  0.00
  HS02004777HS02004785    1.00   0.00  0.00  0.00  1.00  0.00  0.00  0.00  0.21  0.00
  HS02004480HS02004478    1.00   0.06  0.00  0.00  0.73  0.00  0.00  0.21  0.00  0.00
  HS02004479HS02004480    1.00   0.04  0.00  0.00  0.96  0.00  0.00  0.00  0.16  0.00
  HS02004862HS02004870    1.00   0.00  0.00  0.00  1.00  0.00  0.00  0.00  0.06  0.00
  HS02004848HS02004852    1.00   0.06  0.00  0.00  0.94  0.00  0.00  0.00  0.71  0.00
  HS02004856HS02004862    1.00   0.00  0.09  0.00  0.91  0.00  0.00  0.00  0.74  0.00
  HS02004852HS02004856    1.00   0.06  0.01  0.00  0.93  0.00  0.00  0.00  0.83  0.00
  HS02004802HS02004478    1.00   0.06  0.01  0.00  0.93  0.00  0.00  0.00  0.01  0.00
  HS02004478WS02006287    1.00   0.07  0.00  0.00  0.86  0.06  0.00  0.00  0.77  0.00
  HS02004817HS02004807    1.00   0.00  0.06  0.00  0.94  0.00  0.00  0.00  0.00  0.00
  HS02004807HS02004802    1.00   0.06  0.00  0.00  0.94  0.00  0.00  0.00  0.01  0.00
  YS02001759YS02001757    1.00   0.00  0.00  0.00  1.00  0.00  0.00  0.00  0.17  0.00
  YS02001762YS02001759    1.00   0.00  0.00  0.00  1.00  0.00  0.00  0.00  0.04  0.00
  YS02001765YS02001762    1.00   0.00  0.00  0.00  1.00  0.00  0.00  0.00  0.22  0.00
  YS02001770YS02001767    1.00   0.00  0.00  0.00  1.00  0.00  0.00  0.00  0.00  0.00
  YS02001774YS02001770    1.00   0.00  0.07  0.00  0.93  0.00  0.00  0.00  0.07  0.00
  YS02001779YS02001774    1.00   0.00  0.00  0.00  1.00  0.00  0.00  0.00  0.26  0.00
  YS02001649YS02001757    1.00   0.00  0.00  0.00  1.00  0.00  0.00  0.00  0.19  0.00
  YS02001767YS02001765    1.00   0.00  0.00  0.00  1.00  0.00  0.00  0.00  0.01  0.00
  YS02006561YS02001783    1.00   0.09  0.00  0.00  0.53  0.37  0.00  0.00  0.73  0.00
  YS02001783YS02001784    1.00   0.00  0.09  0.00  0.91  0.00  0.00  0.00  0.00  0.00
  YS02001784YS02001785    1.00   0.00  0.00  0.00  1.00  0.00  0.00  0.00  0.25  0.00
  YS02001788YS02001790    1.00   0.00  0.00  0.00  0.77  0.23  0.00  0.00  0.45  0.00
  YS02001790YS02001791    1.00   0.00  0.00  0.00  0.74  0.26  0.00  0.00  0.14  0.00
  YS02001791YS02001793    1.00   0.00  0.00  0.00  0.75  0.25  0.00  0.00  0.04  0.00
  YS02001910YS02001907    1.00   0.00  0.00  0.00  0.96  0.00  0.00  0.03  0.13  0.00
  YS02001786YS02001788    1.00   0.00  0.00  0.00  0.71  0.29  0.00  0.00  0.00  0.00
  YS02001915YS02001910    1.00   0.00  0.00  0.00  0.99  0.01  0.00  0.00  0.24  0.00
  YS02001918YS02001915    1.00   0.00  0.01  0.00  0.97  0.02  0.00  0.00  0.81  0.00
  YS02001923YS02001920    1.00   0.00  0.00  0.00  1.00  0.00  0.00  0.00  1.00  0.00
  YS02001926YS02001923    1.00   0.00  0.05  0.00  0.00  0.00  0.95  0.00  0.00  0.00
  YS02001929YS02001926    1.00   0.00  0.06  0.00  0.94  0.00  0.00  0.00  0.87  0.00
  YS02001920YS02001918    1.00   0.00  0.01  0.00  0.99  0.00  0.00  0.00  0.00  0.00
  YS02001629YS02163301    1.00   0.08  0.00  0.00  0.91  0.00  0.00  0.00  0.00  0.00
  YS02001619YS02001622    1.00   0.06  0.00  0.00  0.94  0.00  0.00  0.00  0.00  0.00
  YS02001622YS02001625    1.00   0.06  0.00  0.00  0.94  0.00  0.00  0.00  0.13  0.00
  YS02001625YS02001629    1.00   0.06  0.03  0.00  0.89  0.00  0.01  0.00  0.00  0.00
  YS02163301YS02001633    1.00   0.00  0.08  0.00  0.92  0.00  0.00  0.00  0.00  0.00
  YS02163601YS02164001    1.00   0.00  0.05  0.00  0.95  0.00  0.00  0.00  0.00  0.00
  YS02164001YS02001641    1.00   0.01  0.04  0.00  0.95  0.00  0.00  0.00  0.07  0.00
  YS02001641YS02001644    1.00   0.00  0.01  0.00  0.99  0.00  0.00  0.00  0.00  0.00
  YS02001647YS02001649    1.00   0.00  0.09  0.00  0.91  0.00  0.00  0.00  0.01  0.00
  YS02006553YS02006556    1.00   0.02  0.00  0.00  0.98  0.00  0.00  0.00  0.03  0.00
  YS02006556YS02006558    1.00   0.00  0.00  0.00  1.00  0.00  0.00  0.00  0.00  0.00
  YSB6556YSB1171          1.00   0.04  0.02  0.00  0.94  0.00  0.00  0.00  0.00  0.00
  YS02001907YS02006553    1.00   0.00  0.03  0.00  0.97  0.00  0.00  0.00  0.00  0.00
  YS02006558YS02006561    1.00   0.09  0.00  0.00  0.00  0.91  0.00  0.00  0.72  0.00
  YS02001633YS02163601    1.00   0.00  0.01  0.00  0.99  0.00  0.00  0.00  0.20  0.00
  YS02001644YS02001647    1.00   0.00  0.09  0.00  0.91  0.00  0.00  0.00  0.00  0.00
  YS02001745YS02001748    1.00   0.00  0.00  0.00  0.84  0.01  0.00  0.15  0.15  0.00
  YS02001748YS02001751    1.00   0.00  0.00  0.00  0.97  0.03  0.00  0.00  0.24  0.00
  YS02001751YS02001754    1.00   0.00  0.00  0.00  0.90  0.00  0.00  0.10  0.02  0.00
  YS02001754YS02001757    1.00   0.00  0.00  0.00  0.99  0.01  0.00  0.00  0.26  0.00
  YS02001882YS02001884    1.00   0.08  0.00  0.00  0.92  0.00  0.00  0.00  0.00  0.00
  YS02001884YS02001887    1.00   0.04  0.01  0.00  0.94  0.00  0.00  0.00  0.00  0.00
  YS02001890YS02001895    1.00   0.00  0.08  0.00  0.92  0.00  0.00  0.00  0.00  0.00
  YS02001895YS02001898    1.00   0.08  0.00  0.00  0.91  0.00  0.01  0.00  0.00  0.00
  YS02001898YS02001901    1.00   0.08  0.01  0.00  0.91  0.00  0.00  0.00  0.02  0.00
  YS02001901YS02001904    1.00   0.08  0.00  0.00  0.92  0.00  0.00  0.00  0.00  0.00
  YS02001904YS02001907    1.00   0.00  0.08  0.00  0.92  0.00  0.00  0.00  0.00  0.00
  YS02001887YS02001890    1.00   0.00  0.00  0.00  0.96  0.00  0.03  0.00  0.00  0.00
  YS02001652YS02001649    1.00   0.00  0.00  0.00  1.00  0.00  0.00  0.00  0.26  0.00
  YS02001655YS02001652    1.00   0.00  0.00  0.00  0.90  0.00  0.00  0.10  0.02  0.00
  YS02001658YS02001655    1.00   0.00  0.07  0.00  0.90  0.03  0.00  0.00  0.11  0.00
  YS02001661YS02001658    1.00   0.07  0.00  0.00  0.84  0.08  0.00  0.00  0.17  0.00
  YS02001664YS02001661    1.00   0.06  0.00  0.00  0.75  0.19  0.00  0.00  0.63  0.00
  YSB1154YSB6556          1.00   0.06  0.00  0.00  0.94  0.00  0.00  0.00  0.02  0.00
  YSB1174YSB1171          1.00   0.04  0.01  0.00  0.95  0.00  0.00  0.00  0.00  0.00
  YSB1171HS02004479       1.00   0.04  0.00  0.00  0.96  0.00  0.00  0.00  0.13  0.00
  HS02004881HS02006253    1.00   0.04  0.00  0.00  0.40  0.04  0.00  0.51  0.27  0.00
  YS02001793JiankangQianchi    1.00   0.00  0.00  0.00  0.93  0.07  0.00  0.00  0.18  0.00
  YS02001757CaochengTiaoxuchi    1.00   0.00  0.11  0.00  0.89  0.00  0.00  0.00  0.00  0.00
  WSF200WS02003060        1.00   0.00  0.08  0.00  0.23  0.69  0.00  0.00  0.37  0.00
  1                       1.00   0.00  0.00  0.00  0.00  1.00  0.00  0.00  0.27  0.00
  2                       1.00   0.98  0.00  0.00  0.00  0.02  0.00  0.00  0.01  0.00
  3                       1.00   0.66  0.00  0.00  0.00  0.34  0.00  0.00  0.46  0.00
  4                       1.00   1.00  0.00  0.00  0.00  0.00  0.00  0.00  0.00  0.00
  
  
  *************************
  Conduit Surcharge Summary
  *************************
  
  ----------------------------------------------------------------------------
                                                           Hours        Hours 
                         --------- Hours Full --------   Above Full   Capacity
  Conduit                Both Ends  Upstream  Dnstream   Normal Flow   Limited
  ----------------------------------------------------------------------------
  WS02006229WS02006228        0.04      0.06      0.04      0.74         0.04
  WS02006256WS02006235        4.14      4.14      6.72      1.65         0.01
  WS02006252WS02006251        0.05      0.05      0.18      0.14         0.01
  WS02006251WS02006249        0.01      0.01      0.01      0.04         0.01
  WS02006249WS02006248        0.01      0.01      0.01      1.25         0.01
  WS02006247WS02006245        0.01      0.01      0.01      2.39         0.01
  WS02006242WS02006240        0.01      0.01      0.01      0.16         0.01
  WS02006238WS02006235        0.01      0.01      0.04      0.01         0.01
  WS02006235WS02006234        0.01      0.01      0.01      3.97         0.01
  WS02006234WS02006232        0.01      0.01      0.05      0.01         0.01
  WS02006232WS02006231        0.01      0.01      0.05      0.01         0.01
  WS02006231WS02006230        0.01      0.01      0.01      4.53         0.01
  WS02006230WS02006229        0.30      0.51      0.30      5.23         0.30
  WS02006228WS02006109        0.05      0.16      0.05      1.68         0.05
  WS02006111WS02006112        0.01      0.01      0.82      0.01         0.01
  WS02006110WS02006113        0.01      0.01      0.10      0.01         0.01
  WS02006109WS02006110        0.01      0.01      0.16      0.01         0.01
  WS02004404WS02004405        0.01      0.01      0.01      4.91         0.01
  YS02001759YS02001757        5.16      5.16      5.31      0.01         0.01
  YS02001762YS02001759        5.09      5.09      5.16      0.01         0.01
  YS02001765YS02001762        4.96      4.96      5.09      0.01         0.01
  YS02001770YS02001767        4.75      4.76      4.80      0.01         0.49
  YS02001774YS02001770        4.53      4.53      5.05      0.01         0.01
  YS02001779YS02001774        3.74      3.74      5.05      0.01         0.01
  YS02001649YS02001757        5.12      5.12      5.31      0.01         0.01
  YS02001767YS02001765        4.80      4.80      4.96      0.01         0.01
  YS02001788YS02001790        0.01      0.01      3.12      0.01         0.01
  YS02001790YS02001791        3.12      3.12      3.64      0.01         0.01
  YS02001791YS02001793        3.64      3.64      4.46      0.01         0.01
  YS02001629YS02163301        4.46      4.46      4.60      0.01         0.01
  YS02001619YS02001622        2.36      2.37      2.64      0.01         0.01
  YS02001622YS02001625        2.64      2.64      4.24      0.01         0.01
  YS02001625YS02001629        2.35      2.35      4.24      0.01         0.01
  YS02163301YS02001633        4.60      4.60      5.00      0.01         0.01
  YS02163601YS02164001        4.98      4.98      5.12      0.01         0.01
  YS02164001YS02001641        4.98      4.98      5.03      0.01         0.01
  YS02001641YS02001644        5.03      5.03      5.03      0.01         0.38
  YS02001647YS02001649        4.17      4.17      5.12      0.01         0.01
  YS02001633YS02163601        4.92      4.92      5.12      0.01         0.01
  YS02001644YS02001647        4.17      4.17      5.03      0.01         0.01
  YS02001748YS02001751        0.01      0.01      2.87      0.01         0.01
  YS02001751YS02001754        2.87      2.87      3.96      0.01         0.01
  YS02001754YS02001757        4.19      4.19      5.31      0.01         0.01
  YS02001652YS02001649        4.22      4.22      5.12      0.01         0.01
  YS02001655YS02001652        3.06      3.06      4.08      0.01         0.01
  YS02001658YS02001655        0.01      0.01      3.06      0.01         0.01
  YS02001793JiankangQianchi        4.22      4.22      5.60      0.01         0.01
  YS02001757CaochengTiaoxuchi        1.25      1.25      5.31      0.01         0.01
  
  
  ***************
  Pumping Summary
  ***************
  
  ---------------------------------------------------------------------------------------------------------
                                                  Min       Avg       Max     Total     Power    % Time Off
                        Percent   Number of      Flow      Flow      Flow    Volume     Usage    Pump Curve
  Pump                 Utilized   Start-Ups       LPS       LPS       LPS  10^6 ltr     Kw-hr    Low   High
  ---------------------------------------------------------------------------------------------------------
  CC-Pump-1               19.60           5      0.00    116.67    200.00     0.597      1.24    0.0   13.1
  CC-Pump-2               49.37           5      0.00    118.62    200.00     1.497      3.43    0.0   14.6
  JK-Pump-1               27.66           6      0.00    153.29    300.00     0.724      5.88    0.0    0.0
  JK-Pump-2               27.65           6      0.00    182.09    300.00     0.995      6.75    0.0    0.0
  XR-Pump-1               57.44           9      0.00     58.35     95.00     0.998      4.42    0.0    0.0
  XR-Pump-2                0.00           0      0.00      0.00      0.00     0.000      0.00    0.0    0.0
  XR-Pump-3               12.77           3      0.00     51.34     94.97     0.171      0.77    0.0    0.0
  XR-Pump-4               21.28           4      0.00     44.40     94.99     0.285      1.27    0.0    0.0
  

  Analysis begun on:  Wed Jan  5 21:44:06 2022
  Analysis ended on:  Wed Jan  5 21:44:07 2022
  Total elapsed time: 00:00:01