
  EPA STORM WATER MANAGEMENT MODEL - VERSION 5.1 (Build 5.3.0.dev0)
  --------------------------------------------------------------

  WARNING 04: minimum elevation drop used for Conduit WS02004404WS02004405
  WARNING 03: negative offset ignored for Link YS02001904YS02001907
  
  *********************************************************
  NOTE: The summary statistics displayed in this report are
  based on results found at every computational time step,  
  not just on results from each reporting time step.
  *********************************************************
  
  ****************
  Analysis Options
  ****************
  Flow Units ............... LPS
  Process Models:
    Rainfall/Runoff ........ YES
    RDII ................... NO
    Snowmelt ............... NO
    Groundwater ............ NO
    Flow Routing ........... YES
    Ponding Allowed ........ NO
    Water Quality .......... NO
  Infiltration Method ...... HORTON
  Flow Routing Method ...... DYNWAVE
  Surcharge Method ......... EXTRAN
  Starting Date ............ 08/28/2015 08:00:00
  Ending Date .............. 08/28/2015 15:50:00
  Antecedent Dry Days ...... 8.0
  Report Time Step ......... 00:01:00
  Wet Time Step ............ 00:01:00
  Dry Time Step ............ 00:01:00
  Routing Time Step ........ 5.00 sec
  Variable Time Step ....... YES
  Maximum Trials ........... 8
  Number of Threads ........ 4
  Head Tolerance ........... 0.001500 m
  
  
  **************************        Volume         Depth
  Runoff Quantity Continuity     hectare-m            mm
  **************************     ---------       -------
  Total Precipitation ......         1.721         3.769
  Evaporation Loss .........         0.000         0.000
  Infiltration Loss ........         0.422         0.924
  Surface Runoff ...........         0.523         1.146
  Final Storage ............         0.776         1.699
  Continuity Error (%) .....        -0.016
  
  
  **************************        Volume        Volume
  Flow Routing Continuity        hectare-m      10^6 ltr
  **************************     ---------     ---------
  Dry Weather Inflow .......         0.616         6.165
  Wet Weather Inflow .......         0.523         5.230
  Groundwater Inflow .......         0.000         0.000
  RDII Inflow ..............         0.000         0.000
  External Inflow ..........         0.102         1.024
  External Outflow .........         0.668         6.676
  Flooding Loss ............         0.422         4.223
  Evaporation Loss .........         0.000         0.000
  Exfiltration Loss ........         0.000         0.000
  Initial Stored Volume ....         0.076         0.761
  Final Stored Volume ......         0.239         2.392
  Continuity Error (%) .....        -0.854
  
  
  *************************
  Highest Continuity Errors
  *************************
  Node HS02004842 (39.88%)
  Node YS02001884 (33.78%)
  Node YS02001774 (23.70%)
  Node YSB1171 (12.09%)
  Node HS02004901 (10.36%)
  
  
  ***************************
  Time-Step Critical Elements
  ***************************
  Link WS02006252WS02006251 (60.54%)
  Link 3 (21.30%)
  Link WS02006280WS02006229 (5.72%)
  Link WS02006238WS02006235 (3.46%)
  Link 2 (1.85%)
  
  
  ********************************
  Highest Flow Instability Indexes
  ********************************
  Link WS02006113WS02006111 (45)
  Link WS02006111WS02006112 (12)
  Link YS02001754YS02001757 (5)
  Link YS02001751YS02001754 (4)
  Link YS02001762YS02001759 (4)
  
  
  *************************
  Routing Time Step Summary
  *************************
  Minimum Time Step           :     0.50 sec
  Average Time Step           :     1.30 sec
  Maximum Time Step           :     5.00 sec
  Percent in Steady State     :    -0.00
  Average Iterations per Step :     2.01
  Percent Not Converging      :     0.00
  
  
  ***************************
  Subcatchment Runoff Summary
  ***************************
  
  ------------------------------------------------------------------------------------------------------------------------------
                            Total      Total      Total      Total     Imperv       Perv      Total       Total     Peak  Runoff
                           Precip      Runon       Evap      Infil     Runoff     Runoff     Runoff      Runoff   Runoff   Coeff
  Subcatchment                 mm         mm         mm         mm         mm         mm         mm    10^6 ltr      LPS
  ------------------------------------------------------------------------------------------------------------------------------
  sub0                       3.77       0.00       0.00       0.26       2.24       0.00       2.24        0.00     0.57   0.594
  sub1                       3.77       0.00       0.00       0.41       2.10       0.00       2.10        0.01     3.05   0.557
  sub2                       3.77       0.00       0.00       1.39       1.47       0.00       1.47        0.01     2.70   0.390
  sub3                       3.77       0.00       0.00       1.39       1.44       0.00       1.44        0.03     5.60   0.382
  sub4                       3.77       0.00       0.00       0.41       1.98       0.00       1.98        0.04     6.31   0.525
  sub5                       3.77       0.00       0.00       0.26       2.20       0.00       2.20        0.02     5.42   0.582
  sub7                       3.77       0.00       0.00       0.34       2.17       0.00       2.17        0.01     1.90   0.577
  sub8                       3.77       0.00       0.00       0.34       2.17       0.00       2.17        0.01     3.36   0.575
  sub9                       3.77       0.00       0.00       0.34       2.16       0.00       2.16        0.01     2.49   0.574
  sub10                      3.77       0.00       0.00       0.30       2.18       0.00       2.18        0.02     5.40   0.578
  sub11                      3.77       0.00       0.00       0.30       2.19       0.00       2.19        0.03     6.31   0.582
  sub12                      3.77       0.00       0.00       0.49       2.09       0.00       2.09        0.02     5.32   0.555
  sub14                      3.77       0.00       0.00       0.34       2.16       0.00       2.16        0.02     4.87   0.574
  sub15                      3.77       0.00       0.00       1.13       1.66       0.00       1.66        0.03     6.61   0.441
  sub16                      3.77       0.00       0.00       1.24       1.61       0.00       1.61        0.02     4.68   0.426
  sub17                      3.77       0.00       0.00       1.21       1.63       0.00       1.63        0.01     3.78   0.432
  sub22                      3.77       0.00       0.00       1.62       1.36       0.00       1.36        0.09    21.57   0.361
  sub23                      3.77       0.00       0.00       1.39       1.50       0.00       1.50        0.07    18.36   0.399
  sub60                      3.77       0.00       0.00       0.45       1.24       0.00       1.24        0.37    31.38   0.328
  sub61                      3.77       0.00       0.00       0.64       1.38       0.00       1.38        0.43    40.65   0.366
  sub62                      3.77       0.00       0.00       0.30       1.46       0.00       1.46        0.45    41.24   0.388
  sub63                      3.77       0.00       0.00       1.09       1.25       0.00       1.25        0.38    38.18   0.331
  sub64                      3.77       0.00       0.00       0.57       1.18       0.00       1.18        0.36    29.72   0.313
  sub65                      3.77       0.00       0.00       0.49       1.19       0.00       1.19        0.37    30.07   0.315
  sub66                      3.77       0.00       0.00       1.09       1.04       0.00       1.04        0.32    27.58   0.276
  sub67                      3.77       0.00       0.00       0.30       1.67       0.00       1.67        0.52    53.76   0.443
  sub68                      3.77       0.00       0.00       0.53       1.48       0.00       1.48        0.46    45.15   0.394
  sub69                      3.77       0.00       0.00       0.57       1.67       0.00       1.67        0.39    44.84   0.442
  sub70                      3.77       1.70       0.00       1.86       1.86       0.00       1.86        0.43    31.90   0.340
  sub71                      3.77       0.00       0.00       0.30       1.38       0.00       1.38        0.33    28.46   0.365
  sub72                      3.77       0.00       0.00       0.26       0.89       0.00       0.89        0.18    12.55   0.236
  sub73                      3.77       1.81       0.00       1.90       1.77       0.00       1.77        0.42    27.33   0.318
  sub74                      3.77       0.00       0.00       2.83       0.51       0.00       0.51        0.20    24.94   0.135
  
  
  ******************
  Node Depth Summary
  ******************
  
  ---------------------------------------------------------------------------------
                                 Average  Maximum  Maximum  Time of Max    Reported
                                   Depth    Depth      HGL   Occurrence   Max Depth
  Node                 Type       Meters   Meters   Meters  days hr:min      Meters
  ---------------------------------------------------------------------------------
  WS02001211           JUNCTION     0.46     0.60     5.43     0  03:51        0.59
  WS02001212           JUNCTION     0.22     0.33     5.39     0  03:51        0.33
  WS02001213           JUNCTION     0.44     0.55     5.32     0  05:23        0.55
  WS02003069           JUNCTION     0.28     0.40     4.98     0  05:25        0.40
  WS02003072           JUNCTION     0.34     0.47     4.84     0  05:25        0.47
  WS02003073           JUNCTION     0.20     0.28     4.34     0  05:26        0.28
  WS02003060           JUNCTION     0.25     0.36     5.29     0  05:24        0.36
  WS02003066           JUNCTION     0.18     0.26     5.81     0  04:12        0.26
  WS02003059           JUNCTION     0.51     0.62     5.31     0  05:23        0.62
  WS02003067           JUNCTION     0.46     0.64     5.96     0  04:12        0.64
  WS02004401           JUNCTION     0.53     0.74     6.74     0  04:08        0.74
  WS02004402           JUNCTION     0.56     0.77     6.73     0  04:08        0.77
  WS02004403           JUNCTION     0.58     0.79     6.72     0  04:09        0.79
  WS02004404           JUNCTION     0.66     0.86     6.71     0  04:09        0.86
  WS02004406           JUNCTION     0.67     0.87     6.70     0  04:09        0.87
  WS02004409           JUNCTION     0.34     0.55     6.32     0  04:10        0.55
  WS02004410           JUNCTION     0.37     0.57     6.29     0  04:11        0.57
  WS02004411           JUNCTION     0.39     0.59     6.27     0  04:11        0.59
  WS02004412           JUNCTION     0.41     0.60     6.24     0  04:11        0.60
  WS02004413           JUNCTION     0.57     0.77     6.24     0  04:12        0.77
  WS02004405           JUNCTION     0.66     0.86     6.71     0  04:09        0.86
  WS02006109           JUNCTION     0.60     0.82     7.44     0  04:05        0.82
  WS02006110           JUNCTION     0.61     0.81     7.39     0  04:05        0.81
  WS02006111           JUNCTION     0.16     0.25     6.95     0  04:06        0.25
  WS02006112           JUNCTION     0.68     0.91     6.80     0  04:07        0.91
  WS02006113           JUNCTION     0.24     0.38     7.28     0  04:05        0.38
  WS02006115           JUNCTION     0.41     0.63     6.77     0  04:08        0.63
  WS02006116           JUNCTION     0.50     0.71     6.75     0  04:08        0.71
  WS02006230           JUNCTION     0.51     0.83     7.57     0  04:05        0.83
  WS02006231           JUNCTION     0.33     0.56     7.69     0  04:04        0.56
  WS02006232           JUNCTION     0.45     0.71     7.75     0  04:04        0.71
  WS02006234           JUNCTION     0.35     0.65     7.81     0  04:04        0.65
  WS02006235           JUNCTION     0.38     0.68     7.85     0  04:04        0.68
  WS02006238           JUNCTION     0.41     0.71     7.86     0  04:04        0.71
  WS02006240           JUNCTION     0.31     0.63     7.92     0  04:03        0.63
  WS02006242           JUNCTION     0.36     0.70     7.97     0  04:02        0.70
  WS02006243           JUNCTION     0.25     0.59     8.01     0  04:00        0.59
  WS02006245           JUNCTION     0.24     0.57     8.06     0  04:00        0.57
  WS02006247           JUNCTION     0.27     0.60     8.10     0  04:00        0.60
  WS02006248           JUNCTION     0.22     0.55     8.14     0  04:00        0.55
  WS02006249           JUNCTION     0.26     0.58     8.18     0  04:00        0.58
  WS02006239           JUNCTION     0.36     0.68     7.89     0  04:03        0.68
  WS02006251           JUNCTION     0.25     0.60     8.27     0  04:00        0.60
  WS02006252           JUNCTION     0.23     0.58     8.83     0  03:50        0.58
  WS02006253           JUNCTION     0.28     0.63     8.27     0  04:00        0.63
  WS02006256           JUNCTION     0.77     1.19     8.13     0  05:00        1.19
  WS02004138           JUNCTION     0.07     0.14     7.39     0  03:50        0.14
  WS02004407           JUNCTION     0.16     0.25     6.56     0  04:09        0.25
  WS02006228           JUNCTION     0.57     0.83     7.48     0  04:05        0.83
  WS02006229           JUNCTION     0.54     0.81     7.50     0  04:05        0.81
  WS02006280           JUNCTION     0.04     0.10     8.37     0  02:31        0.10
  WS02006284           JUNCTION     0.33     0.41     8.81     0  02:31        0.41
  WS02006287           JUNCTION     0.06     0.14     9.10     0  02:30        0.14
  WSF200               JUNCTION     0.15     0.24     5.48     0  04:12        0.24
  HS02004901           JUNCTION     0.10     0.17     9.99     0  02:29        0.17
  HS02004881           JUNCTION     0.00     0.01     9.04     0  02:30        0.01
  HS02004876           JUNCTION     0.03     0.08     9.11     0  02:31        0.08
  HS02004870           JUNCTION     0.01     0.02     9.31     0  02:30        0.02
  HS02004862           JUNCTION     0.01     0.03     9.41     0  02:32        0.03
  HS02004856           JUNCTION     0.07     0.09     9.51     0  02:30        0.09
  HS02004852           JUNCTION     0.00     0.01     9.53     0  02:32        0.01
  HS02004848           JUNCTION     0.00     0.01     9.61     0  02:29        0.01
  HS02004842           JUNCTION     0.33     0.34     9.61     0  02:29        0.34
  HS02004837           JUNCTION     0.02     0.03     9.61     0  02:29        0.03
  HS02004830           JUNCTION     0.03     0.05     9.52     0  02:29        0.05
  HS02004824           JUNCTION     0.02     0.03     9.43     0  02:34        0.03
  HS02004817           JUNCTION     0.41     0.47     9.32     0  02:31        0.47
  HS02004807           JUNCTION     0.10     0.15     9.32     0  02:31        0.15
  HS02004802           JUNCTION     0.14     0.19     9.32     0  02:31        0.19
  HS02004799           JUNCTION     0.08     0.17     9.38     0  02:29        0.17
  HS02004792           JUNCTION     0.02     0.06     9.58     0  02:28        0.06
  HS02004788           JUNCTION     0.01     0.04     9.94     0  02:29        0.04
  HS02004785           JUNCTION     0.02     0.08     9.99     0  02:29        0.08
  HS02004777           JUNCTION     0.12     0.19     9.99     0  02:29        0.19
  HS02004770           JUNCTION     0.09     0.16     9.99     0  02:28        0.16
  HS02004480           JUNCTION     0.05     0.13     9.37     0  02:29        0.13
  HS02004479           JUNCTION     0.09     0.17     9.37     0  02:29        0.17
  HS02004478           JUNCTION     0.04     0.08     9.31     0  02:30        0.08
  YS02001745           JUNCTION     0.05     0.08     7.59     0  03:01        0.08
  YS02001748           JUNCTION     0.08     0.15     7.23     0  03:46        0.15
  YS02001751           JUNCTION     0.25     0.36     7.24     0  03:50        0.35
  YS02001754           JUNCTION     0.49     0.64     7.25     0  03:50        0.64
  YS02001762           JUNCTION     0.68     0.83     7.23     0  03:47        0.83
  YS02001765           JUNCTION     0.63     0.78     7.23     0  03:47        0.78
  YS02001767           JUNCTION     0.60     0.74     7.23     0  03:48        0.74
  YS02001770           JUNCTION     0.60     0.73     7.23     0  03:48        0.73
  YS02001774           JUNCTION     0.66     0.80     7.23     0  03:48        0.80
  YS02001779           JUNCTION     0.42     0.54     7.23     0  03:49        0.54
  YS02001882           JUNCTION     0.20     0.30     7.02     0  03:01        0.30
  YS02001884           JUNCTION     0.29     0.40     7.02     0  03:02        0.40
  YS02001759           JUNCTION     0.71     0.87     7.23     0  03:49        0.86
  YS02001887           JUNCTION     0.37     0.48     7.02     0  03:02        0.48
  YS02001890           JUNCTION     0.40     0.51     7.01     0  03:03        0.51
  YS02001898           JUNCTION     0.18     0.27     7.00     0  03:02        0.27
  YS02001901           JUNCTION     0.29     0.39     7.00     0  03:03        0.39
  YS02001904           JUNCTION     0.27     0.37     7.00     0  03:03        0.37
  YS02001907           JUNCTION     0.60     0.71     7.00     0  03:03        0.71
  YS02001910           JUNCTION     0.39     0.49     7.00     0  03:03        0.49
  YS02001915           JUNCTION     0.19     0.28     7.00     0  03:03        0.28
  YS02001918           JUNCTION     0.05     0.07     7.13     0  03:05        0.07
  YS02001619           JUNCTION     0.21     0.30     7.23     0  03:48        0.30
  YS02001629           JUNCTION     0.54     0.68     7.23     0  03:46        0.68
  YS02001641           JUNCTION     0.65     0.79     7.23     0  03:48        0.79
  YS02001644           JUNCTION     0.65     0.80     7.23     0  03:48        0.79
  YS02001652           JUNCTION     0.50     0.64     7.24     0  03:47        0.64
  YS02001655           JUNCTION     0.28     0.38     7.23     0  03:47        0.38
  YS02001920           JUNCTION     0.14     0.16     7.16     0  03:04        0.16
  YS02001923           JUNCTION     0.04     0.05     7.31     0  03:03        0.05
  YS02001926           JUNCTION     0.10     0.12     7.57     0  03:03        0.12
  YS02001929           JUNCTION     0.04     0.06     7.75     0  03:01        0.06
  YS02001658           JUNCTION     0.05     0.09     7.23     0  03:01        0.09
  YS02001661           JUNCTION     0.12     0.16     7.56     0  03:01        0.16
  YS02001664           JUNCTION     0.05     0.08     8.00     0  03:01        0.08
  YS02001622           JUNCTION     0.23     0.32     7.23     0  03:47        0.32
  YS02001633           JUNCTION     0.63     0.77     7.23     0  03:47        0.77
  YS02001649           JUNCTION     0.69     0.84     7.23     0  03:49        0.84
  YS02001757           JUNCTION     0.81     0.97     7.23     0  03:48        0.97
  YS02001895           JUNCTION     0.17     0.26     7.01     0  03:03        0.26
  YS02001625           JUNCTION     0.50     0.62     7.23     0  03:47        0.62
  YS02163301           JUNCTION     0.57     0.71     7.23     0  03:47        0.71
  YS02163601           JUNCTION     0.69     0.83     7.23     0  03:48        0.83
  YS02164001           JUNCTION     0.63     0.77     7.23     0  03:48        0.77
  YS02001647           JUNCTION     0.49     0.62     7.23     0  03:47        0.62
  YSB1154              JUNCTION     0.22     0.31     9.37     0  02:29        0.31
  YSB6556              JUNCTION     0.12     0.20     9.37     0  02:29        0.20
  YSB1174              JUNCTION     0.17     0.26     9.37     0  02:29        0.26
  YSB1171              JUNCTION     0.37     0.47     9.37     0  02:29        0.47
  YS02006553           JUNCTION     0.60     0.71     7.00     0  03:03        0.71
  YS02006561           JUNCTION     0.09     0.15     6.81     0  03:03        0.15
  YS02006556           JUNCTION     0.57     0.69     7.00     0  03:03        0.69
  YS02006558           JUNCTION     0.62     0.73     7.00     0  03:03        0.73
  YS02001783           JUNCTION     0.16     0.25     6.39     0  03:03        0.25
  YS02001784           JUNCTION     0.19     0.29     6.35     0  03:04        0.29
  YS02001786           JUNCTION     0.16     0.24     6.27     0  03:04        0.24
  YS02001788           JUNCTION     0.12     0.18     6.15     0  03:04        0.18
  YS02001790           JUNCTION     0.14     0.21     5.86     0  03:05        0.21
  YS02001791           JUNCTION     0.10     0.14     5.61     0  03:06        0.14
  YS02001793           JUNCTION     0.06     0.41     5.24     0  03:03        0.40
  WS02004139           JUNCTION     0.39     0.53     5.44     0  03:50        0.53
  WSC                  OUTFALL      0.19     0.28     0.95     0  05:27        0.28
  3                    OUTFALL      0.03     0.19     6.19     0  05:00        0.19
  4                    OUTFALL      0.00     0.08     7.08     0  04:00        0.08
  5                    OUTFALL      0.00     0.00     5.00     0  00:00        0.00
  JK-storage           STORAGE      0.89     4.40     5.20     0  03:02        4.37
  CC-storage           STORAGE      0.12     0.19     7.19     0  03:44        0.19
  XR-storage           STORAGE      7.68     7.72     5.72     0  00:42        7.72
  
  
  *******************
  Node Inflow Summary
  *******************
  
  -------------------------------------------------------------------------------------------------
                                  Maximum  Maximum                  Lateral       Total        Flow
                                  Lateral    Total  Time of Max      Inflow      Inflow     Balance
                                   Inflow   Inflow   Occurrence      Volume      Volume       Error
  Node                 Type           LPS      LPS  days hr:min    10^6 ltr    10^6 ltr     Percent
  -------------------------------------------------------------------------------------------------
  WS02001211           JUNCTION      7.35   188.92     0  03:50       0.207         1.9       1.277
  WS02001212           JUNCTION      0.00   182.51     0  03:51           0        1.88       0.610
  WS02001213           JUNCTION      0.00   180.50     0  03:51           0        1.87       0.801
  WS02003069           JUNCTION      0.32   484.96     0  05:24     0.00902        5.98       0.268
  WS02003072           JUNCTION      0.00   484.93     0  05:25           0        5.96       0.369
  WS02003073           JUNCTION      1.82   486.52     0  05:26      0.0514        5.99       0.391
  WS02003060           JUNCTION     16.53   484.18     0  05:23       0.466           6       0.257
  WS02003066           JUNCTION      0.00   385.57     0  04:12           0         3.7       0.076
  WS02003059           JUNCTION      0.00   178.73     0  03:52           0        1.86       1.528
  WS02003067           JUNCTION      0.00   385.52     0  04:12           0        3.71       0.176
  WS02004401           JUNCTION      0.00   392.78     0  04:07           0        3.86       0.367
  WS02004402           JUNCTION      0.00   391.47     0  04:07           0        3.85       0.362
  WS02004403           JUNCTION      0.00   390.91     0  04:08           0        3.84       0.344
  WS02004404           JUNCTION      0.16   390.71     0  04:09     0.00457        3.83       0.274
  WS02004406           JUNCTION      0.00   390.74     0  04:09           0         3.8       0.677
  WS02004409           JUNCTION      0.00   390.35     0  04:09           0        3.77       0.220
  WS02004410           JUNCTION      0.00   388.80     0  04:10           0        3.77       0.276
  WS02004411           JUNCTION      0.00   387.54     0  04:10           0        3.76       0.305
  WS02004412           JUNCTION      0.00   386.57     0  04:11           0        3.74       0.357
  WS02004413           JUNCTION      0.00   385.91     0  04:11           0        3.73       0.573
  WS02004405           JUNCTION      0.04   390.67     0  04:09     0.00107        3.82       0.412
  WS02006109           JUNCTION      1.23   398.42     0  04:05      0.0347        3.92       0.279
  WS02006110           JUNCTION      0.00   398.39     0  04:05           0        3.91       0.322
  WS02006111           JUNCTION      0.00   407.23     0  04:06           0        3.89       0.039
  WS02006112           JUNCTION      3.78   399.71     0  04:06       0.014        3.91       0.547
  WS02006113           JUNCTION      0.00   398.46     0  04:05           0         3.9       0.100
  WS02006115           JUNCTION      0.00   397.28     0  04:06           0        3.89       0.300
  WS02006116           JUNCTION      0.00   394.77     0  04:06           0        3.87       0.258
  WS02006230           JUNCTION     10.28   378.69     0  04:03        0.29        3.34       0.139
  WS02006231           JUNCTION      0.00   371.05     0  04:02           0        3.05       0.147
  WS02006232           JUNCTION      0.00   371.83     0  04:02           0        3.06       0.267
  WS02006234           JUNCTION      0.00   374.49     0  04:02           0        3.06       0.030
  WS02006235           JUNCTION      0.00   376.16     0  04:02           0        3.13       0.157
  WS02006238           JUNCTION      0.00   336.57     0  04:00           0        2.06       0.028
  WS02006240           JUNCTION      0.00   337.31     0  03:56           0           2       0.122
  WS02006242           JUNCTION      0.00   340.20     0  03:52           0        1.97       0.100
  WS02006243           JUNCTION      0.00   346.26     0  03:51           0        1.95      -0.211
  WS02006245           JUNCTION      0.00   349.71     0  03:51           0        1.96       0.328
  WS02006247           JUNCTION      0.00   353.88     0  03:51           0        1.96       0.050
  WS02006248           JUNCTION      0.00   358.02     0  03:51           0        1.95      -0.198
  WS02006249           JUNCTION      0.00   402.43     0  04:00           0           2       0.308
  WS02006239           JUNCTION      0.00   336.79     0  04:00           0        2.03      -0.291
  WS02006251           JUNCTION      0.08   402.90     0  03:51     0.00217        2.02      -0.041
  WS02006252           JUNCTION      0.00   400.00     0  03:50           0        1.92       0.009
  WS02006253           JUNCTION      0.57    24.70     0  03:45     0.00181      0.0988       0.215
  WS02006256           JUNCTION      0.00   600.00     0  05:00           0        1.78       0.110
  WS02004138           JUNCTION      0.00   189.98     0  05:20           0        1.71       0.093
  WS02004407           JUNCTION      0.00   390.45     0  04:09           0        3.78       0.095
  WS02006228           JUNCTION      0.00   397.36     0  04:04           0         3.9       0.226
  WS02006229           JUNCTION      0.00   397.44     0  04:04           0         3.9       0.212
  WS02006280           JUNCTION      0.00    92.20     0  02:31           0       0.573       0.013
  WS02006284           JUNCTION      0.10    92.20     0  02:30      0.0027       0.574       0.204
  WS02006287           JUNCTION      0.00    92.11     0  02:30           0       0.572       0.121
  WSF200               JUNCTION      0.00   385.55     0  04:12           0         3.7       0.058
  HS02004901           JUNCTION      4.68     4.68     0  02:19      0.0168       0.017      11.560
  HS02004881           JUNCTION      1.90    15.83     0  02:30     0.00733      0.0754       0.129
  HS02004876           JUNCTION      3.05    14.15     0  02:29       0.014      0.0686       0.759
  HS02004870           JUNCTION      3.36    11.16     0  02:29      0.0138      0.0548       0.194
  HS02004862           JUNCTION      2.90     8.01     0  02:30      0.0193      0.0411       0.404
  HS02004856           JUNCTION      2.49     5.12     0  02:29      0.0104      0.0232       6.606
  HS02004852           JUNCTION      0.00     2.78     0  02:30           0      0.0128       0.368
  HS02004848           JUNCTION      5.60     5.60     0  02:33      0.0324      0.0324       0.130
  HS02004842           JUNCTION      0.00     4.49     0  00:03           0      0.0326      66.344
  HS02004837           JUNCTION     11.75    14.45     0  02:28       0.203       0.223       0.364
  HS02004830           JUNCTION      0.15    14.59     0  02:29     0.00423       0.213       0.581
  HS02004824           JUNCTION      6.36    20.87     0  02:34      0.0427       0.254       0.212
  HS02004817           JUNCTION      0.60    21.47     0  02:34      0.0169       0.271       6.552
  HS02004807           JUNCTION      6.31    27.27     0  02:31      0.0255        0.28       1.533
  HS02004802           JUNCTION      0.00    27.33     0  02:33           0       0.275       1.494
  HS02004799           JUNCTION      4.87    55.23     0  02:27      0.0206       0.272       0.829
  HS02004792           JUNCTION     21.85    50.49     0  02:27      0.0938       0.252       0.167
  HS02004788           JUNCTION      8.28    29.65     0  02:29      0.0756        0.16       0.246
  HS02004785           JUNCTION      0.15    21.63     0  02:28     0.00423       0.086       0.558
  HS02004777           JUNCTION      0.03    21.77     0  02:25    0.000846      0.0862       6.378
  HS02004770           JUNCTION     18.36    22.42     0  02:21      0.0717      0.0869       3.699
  HS02004480           JUNCTION      0.00    65.01     0  02:29           0       0.313       0.211
  HS02004479           JUNCTION      0.00     9.94     0  02:31           0      0.0528       1.397
  HS02004478           JUNCTION      0.00    92.11     0  02:30           0       0.573       0.118
  YS02001745           JUNCTION     31.39    31.39     0  03:01       0.375       0.375       0.085
  YS02001748           JUNCTION      0.04    31.41     0  03:01     0.00127       0.376      -0.007
  YS02001751           JUNCTION      0.01    84.92     0  04:31     0.00031       0.519       0.910
  YS02001754           JUNCTION      0.26   188.62     0  04:31     0.00733       0.838       1.559
  YS02001762           JUNCTION      0.00    48.05     0  03:57           0       0.464       3.590
  YS02001765           JUNCTION      0.00    71.10     0  04:28           0       0.456       3.932
  YS02001767           JUNCTION      0.54    57.63     0  04:28      0.0151       0.466       5.458
  YS02001770           JUNCTION     41.39    46.96     0  02:59       0.453        0.47       4.531
  YS02001774           JUNCTION      0.00    20.27     0  02:35           0      0.0754      31.055
  YS02001779           JUNCTION      0.01    11.68     0  04:21    0.000141      0.0409      21.524
  YS02001882           JUNCTION      0.00     1.72     0  02:23           0     0.00302      82.272
  YS02001884           JUNCTION      0.00     5.30     0  02:09           0      0.0124      51.001
  YS02001759           JUNCTION     40.69    91.77     0  04:00       0.426       0.861       2.214
  YS02001887           JUNCTION     54.21    54.21     0  03:01       0.527       0.533       1.221
  YS02001890           JUNCTION      0.00    53.72     0  03:01           0       0.515       1.393
  YS02001898           JUNCTION      0.00    53.41     0  03:02           0       0.505       0.343
  YS02001901           JUNCTION      0.00    53.43     0  03:02           0       0.505       0.958
  YS02001904           JUNCTION      0.00    53.33     0  03:03           0       0.505       0.896
  YS02001907           JUNCTION      0.00    96.71     0  03:03           0        1.08       1.979
  YS02001910           JUNCTION      0.00    43.52     0  03:01           0       0.582       1.616
  YS02001915           JUNCTION     28.48    43.64     0  03:01       0.325       0.586       0.636
  YS02001918           JUNCTION      0.00    15.42     0  03:04           0       0.261       0.288
  YS02001619           JUNCTION     27.58    27.58     0  03:01       0.319       0.319       0.541
  YS02001629           JUNCTION      0.00    30.32     0  02:55           0       0.295       3.109
  YS02001641           JUNCTION      0.00    63.51     0  03:59           0       0.613       2.566
  YS02001644           JUNCTION     29.76    87.45     0  02:55       0.359       0.949       2.011
  YS02001652           JUNCTION      0.00    58.57     0  04:28           0       0.425       2.866
  YS02001655           JUNCTION      0.15    38.31     0  03:01     0.00434       0.391       1.547
  YS02001920           JUNCTION      2.87    15.44     0  03:03      0.0809       0.263       0.614
  YS02001923           JUNCTION      0.04    12.57     0  03:03     0.00106       0.182       0.110
  YS02001926           JUNCTION      0.05    12.59     0  03:01     0.00147       0.182       0.804
  YS02001929           JUNCTION     12.55    12.55     0  03:01       0.181       0.181       0.104
  YS02001658           JUNCTION      0.00    38.17     0  03:01           0       0.377       0.044
  YS02001661           JUNCTION      0.00    38.18     0  03:01           0       0.378       0.186
  YS02001664           JUNCTION     38.18    38.18     0  03:01       0.378       0.378       0.037
  YS02001622           JUNCTION      0.00    28.26     0  02:54           0       0.318       1.929
  YS02001633           JUNCTION     30.27    64.54     0  02:55       0.371       0.647       3.582
  YS02001649           JUNCTION      0.00   140.03     0  03:54           0         1.3       2.192
  YS02001757           JUNCTION      0.00   320.58     0  04:28           0        2.68       3.062
  YS02001895           JUNCTION      0.00    53.57     0  03:01           0       0.508       0.580
  YS02001625           JUNCTION      0.00    31.60     0  02:54           0       0.312       6.549
  YS02163301           JUNCTION      0.00    32.81     0  04:00           0       0.293       5.504
  YS02163601           JUNCTION      0.11    61.57     0  02:55      0.0031       0.623       3.795
  YS02164001           JUNCTION      0.00    62.63     0  03:59           0        0.61       2.373
  YS02001647           JUNCTION      0.00    89.97     0  02:56           0       0.918       1.728
  YSB1154              JUNCTION      5.42     5.42     0  02:25      0.0249      0.0263       5.808
  YSB6556              JUNCTION      0.00     5.38     0  02:29           0      0.0274       4.754
  YSB1174              JUNCTION      5.32     5.32     0  02:18      0.0183      0.0193       7.140
  YSB1171              JUNCTION      0.00     9.99     0  02:27           0      0.0522      13.755
  YS02006553           JUNCTION      0.00    96.84     0  03:05           0        1.06       1.293
  YS02006561           JUNCTION      0.00   141.62     0  03:03           0         1.5       0.032
  YS02006556           JUNCTION      0.00    96.96     0  03:05           0        1.07       0.923
  YS02006558           JUNCTION     46.03   141.63     0  03:03       0.481        1.52       0.277
  YS02001783           JUNCTION      0.00   141.62     0  03:03           0         1.5       0.075
  YS02001784           JUNCTION      1.06   142.68     0  03:03      0.0299        1.53       0.127
  YS02001786           JUNCTION      0.06   142.73     0  03:04     0.00159        1.53       0.124
  YS02001788           JUNCTION      0.07   142.81     0  03:04       0.002        1.53       0.068
  YS02001790           JUNCTION      0.15   142.96     0  03:04     0.00437        1.53       0.089
  YS02001791           JUNCTION      0.00   142.95     0  03:05           0        1.53       0.042
  YS02001793           JUNCTION      0.00   309.24     0  03:04           0        1.53       0.036
  WS02004139           JUNCTION      0.32   189.39     0  03:50     0.00905        1.72       1.388
  WSC                  OUTFALL       0.00   485.82     0  05:27           0        5.97       0.000
  3                    OUTFALL       0.00   459.41     0  05:00           0       0.665       0.000
  4                    OUTFALL       0.00    64.41     0  04:00           0      0.0409       0.000
  5                    OUTFALL       0.00     0.00     0  00:00           0           0       0.000 ltr
  JK-storage           STORAGE       0.00   613.24     0  03:05           0        1.68      -5.531
  CC-storage           STORAGE       0.00   213.20     0  03:06           0        2.29       0.287
  XR-storage           STORAGE     251.96   251.96     0  03:01        6.26        6.86       0.001
  
  
  **********************
  Node Surcharge Summary
  **********************
  
  Surcharging occurs when water rises above the top of the highest conduit.
  ---------------------------------------------------------------------
                                               Max. Height   Min. Depth
                                   Hours       Above Crown    Below Rim
  Node                 Type      Surcharged         Meters       Meters
  ---------------------------------------------------------------------
  WS02006109           JUNCTION        0.02          0.001        1.819
  WS02006232           JUNCTION        0.08          0.013        1.467
  WS02006252           JUNCTION        0.29          0.185        0.915
  
  
  *********************
  Node Flooding Summary
  *********************
  
  Flooding refers to all water that overflows a node, whether it ponds or not.
  --------------------------------------------------------------------------
                                                             Total   Maximum
                                 Maximum   Time of Max       Flood    Ponded
                        Hours       Rate    Occurrence      Volume     Depth
  Node                 Flooded       LPS   days hr:min    10^6 ltr    Meters
  --------------------------------------------------------------------------
  XR-storage              7.12    251.96      0  03:01       4.223     0.000
  
  
  **********************
  Storage Volume Summary
  **********************
  
  --------------------------------------------------------------------------------------------------
                         Average     Avg  Evap Exfil       Maximum     Max    Time of Max    Maximum
                          Volume    Pcnt  Pcnt  Pcnt        Volume    Pcnt     Occurrence    Outflow
  Storage Unit           1000 m3    Full  Loss  Loss       1000 m3    Full    days hr:min        LPS
  --------------------------------------------------------------------------------------------------
  JK-storage               0.045      15     0     0         0.221      76       0  03:02     600.00
  CC-storage               0.328       2     0     0         0.538       3       0  03:44     400.00
  XR-storage               0.922      99     0     0         0.926     100       0  00:42     189.98
  
  
  ***********************
  Outfall Loading Summary
  ***********************
  
  -----------------------------------------------------------
                         Flow       Avg       Max       Total
                         Freq      Flow      Flow      Volume
  Outfall Node           Pcnt       LPS       LPS    10^6 ltr
  -----------------------------------------------------------
  WSC                  100.00    251.56    485.82       5.970
  3                     35.58    129.60    459.41       0.665
  4                      3.85     37.52     64.41       0.041
  5                      0.00      0.00      0.00       0.000
  -----------------------------------------------------------
  System                34.86    418.69    713.61       6.676
  
  
  ********************
  Link Flow Summary
  ********************
  
  -----------------------------------------------------------------------------
                                 Maximum  Time of Max   Maximum    Max/    Max/
                                  |Flow|   Occurrence   |Veloc|    Full    Full
  Link                 Type          LPS  days hr:min     m/sec    Flow   Depth
  -----------------------------------------------------------------------------
  WS02003066WSF200     CONDUIT    385.55     0  04:12      2.63    0.07    0.19
  WS02006287WS02006284 CONDUIT     92.10     0  02:30      1.22    0.04    0.15
  WS02006284WS02006280 CONDUIT     92.20     0  02:31      1.47    0.04    0.13
  WS02006280WS02006229 CONDUIT     92.20     0  02:31      2.36    0.02    0.10
  WS02006229WS02006228 CONDUIT    397.36     0  04:04      0.79    1.32    1.00
  WS02006256WS02006235 CONDUIT    149.95     0  00:35      2.14    1.59    1.00
  WS02006253WS02006251 CONDUIT     21.39     0  03:45      0.35    0.06    0.88
  WS02006252WS02006251 CONDUIT    400.35     0  03:50      3.19    1.47    1.00
  WS02006251WS02006249 CONDUIT    402.43     0  04:00      1.18    1.16    0.85
  WS02006249WS02006248 CONDUIT    358.02     0  03:51      1.17    1.96    0.79
  WS02006248WS02006247 CONDUIT    353.88     0  03:51      1.14    0.77    0.81
  WS02006247WS02006245 CONDUIT    349.71     0  03:51      1.11    2.77    0.83
  WS02006245WS02006243 CONDUIT    346.26     0  03:51      1.14    1.02    0.82
  WS02006243WS02006242 CONDUIT    340.20     0  03:52      1.02    0.73    0.89
  WS02006242WS02006240 CONDUIT    337.31     0  03:56      0.97    1.34    0.94
  WS02006240WS02006239 CONDUIT    336.79     0  04:00      1.01    1.06    0.91
  WS02006239WS02006238 CONDUIT    336.57     0  04:00      0.93    1.08    0.98
  WS02006238WS02006235 CONDUIT    336.50     0  04:00      0.92    0.75    0.99
  WS02006235WS02006234 CONDUIT    374.49     0  04:02      1.01    3.95    0.93
  WS02006234WS02006232 CONDUIT    371.83     0  04:02      0.98    0.75    0.96
  WS02006232WS02006231 CONDUIT    371.05     0  04:02      1.03    0.78    0.89
  WS02006231WS02006230 CONDUIT    368.41     0  04:03      1.31    5.59    0.72
  WS02006230WS02006229 CONDUIT    377.42     0  04:05      0.98    8.40    1.00
  WS02006228WS02006109 CONDUIT    397.19     0  04:05      0.79    1.74    1.00
  WS02006116WS02004401 CONDUIT    392.78     0  04:07      0.76    0.54    0.72
  WS02006115WS02006116 CONDUIT    394.77     0  04:06      0.94    0.51    0.64
  WS02006113WS02006111 CONDUIT    407.23     0  04:06      2.22    0.49    0.39
  WS02006112WS02006115 CONDUIT    397.28     0  04:06      0.62    0.23    0.76
  WS02006111WS02006112 CONDUIT    399.53     0  04:06      1.16    0.19    0.65
  WS02006110WS02006113 CONDUIT    398.46     0  04:05      1.00    0.36    0.74
  WS02006109WS02006110 CONDUIT    398.39     0  04:05      0.81    0.77    0.94
  WS02004411WS02004412 CONDUIT    386.57     0  04:11      0.79    0.55    0.60
  WS02004401WS02004402 CONDUIT    391.47     0  04:07      0.78    0.47    0.75
  WS02004413WS02003067 CONDUIT    385.52     0  04:12      0.93    0.17    0.52
  WS02004412WS02004413 CONDUIT    385.91     0  04:11      0.68    0.26    0.69
  WS02004410WS02004411 CONDUIT    387.54     0  04:10      0.82    0.53    0.58
  WS02004409WS02004410 CONDUIT    388.80     0  04:10      0.86    0.50    0.56
  WS02004407WS02004409 CONDUIT    390.35     0  04:09      1.33    0.14    0.40
  WS02004406WS02004407 CONDUIT    390.45     0  04:09      0.86    0.17    0.56
  WS02004405WS02004406 CONDUIT    390.74     0  04:09      0.71    0.77    0.87
  WS02004404WS02004405 CONDUIT    390.64     0  04:09      0.91    3.83    0.86
  WS02004403WS02004404 CONDUIT    390.55     0  04:09      0.84    0.28    0.83
  WS02004402WS02004403 CONDUIT    390.91     0  04:08      0.86    0.56    0.78
  WS02004139WS02001211 CONDUIT    181.57     0  03:50      0.53    0.23    0.43
  WS02004138WS02004139 CONDUIT    189.07     0  03:50      2.39    0.04    0.31
  WS02003067WS02003066 CONDUIT    385.57     0  04:12      1.00    0.12    0.37
  WS02001213WS02003059 CONDUIT    178.73     0  03:52      0.41    0.29    0.58
  WS02001212WS02001213 CONDUIT    180.50     0  03:51      1.00    0.28    0.28
  WS02001211WS02001212 CONDUIT    182.51     0  03:51      0.52    0.14    0.46
  WS02003072WS02003073 CONDUIT    484.70     0  05:26      1.37    1.05    0.35
  WS02003069WS02003072 CONDUIT    484.93     0  05:25      1.31    0.23    0.36
  WS02003060WS02003069 CONDUIT    484.64     0  05:24      1.59    0.19    0.31
  WS02003059WS02003060 CONDUIT    175.93     0  03:53      0.56    0.11    0.49
  HS02004901HS02004770 CONDUIT      4.25     0  02:26      0.03    0.02    0.24
  HS02004876HS02004881 CONDUIT     14.11     0  02:31      0.32    0.15    0.06
  HS02004870HS02004876 CONDUIT     11.15     0  02:30      0.23    0.01    0.07
  HS02004842HS02004848 CONDUIT      2.95     0  02:43      0.02    0.00    0.26
  HS02004837HS02004842 CONDUIT      4.49     0  00:03      0.42    0.00    0.27
  HS02004830HS02004837 CONDUIT     14.44     0  02:29      0.36    0.01    0.06
  HS02004824HS02004830 CONDUIT     14.59     0  02:30      0.40    0.02    0.05
  HS02004817HS02004824 CONDUIT     20.87     0  02:34      0.17    0.01    0.36
  HS02004770HS02004777 CONDUIT     21.74     0  02:25      0.12    0.04    0.25
  HS02004799HS02004480 CONDUIT     55.15     0  02:28      0.38    0.07    0.21
  HS02004792HS02004799 CONDUIT     50.46     0  02:28      0.44    0.03    0.16
  HS02004788HS02004792 CONDUIT     29.63     0  02:29      0.61    0.02    0.07
  HS02004785HS02004788 CONDUIT     21.54     0  02:29      0.34    0.16    0.09
  HS02004777HS02004785 CONDUIT     21.48     0  02:28      0.16    0.03    0.20
  HS02004480HS02004478 CONDUIT     64.98     0  02:29      0.67    0.27    0.14
  HS02004479HS02004480 CONDUIT     10.01     0  02:32      0.16    0.01    0.21
  HS02004862HS02004870 CONDUIT      7.99     0  02:31      0.32    0.01    0.04
  HS02004848HS02004852 CONDUIT      2.78     0  02:30      0.20    0.00    0.02
  HS02004856HS02004862 CONDUIT      5.11     0  02:30      0.23    0.01    0.03
  HS02004852HS02004856 CONDUIT      2.76     0  02:32      0.05    0.00    0.07
  HS02004802HS02004478 CONDUIT     27.42     0  02:34      0.20    0.02    0.19
  HS02004478WS02006287 CONDUIT     92.11     0  02:30      0.91    0.03    0.11
  HS02004817HS02004807 CONDUIT     21.63     0  02:36      0.07    0.01    0.44
  HS02004807HS02004802 CONDUIT     27.33     0  02:33      0.19    0.05    0.23
  YS02001759YS02001757 CONDUIT     87.57     0  03:00      0.13    0.06    0.92
  YS02001762YS02001759 CONDUIT     68.54     0  04:28      0.17    0.08    0.84
  YS02001765YS02001762 CONDUIT     48.05     0  03:57      0.22    0.05    0.81
  YS02001770YS02001767 CONDUIT     47.92     0  02:59      0.28    0.19    0.73
  YS02001774YS02001770 CONDUIT     20.27     0  02:35      0.12    0.01    0.75
  YS02001779YS02001774 CONDUIT     12.13     0  04:27      0.06    0.01    0.67
  YS02001649YS02001757 CONDUIT    134.16     0  04:00      0.19    0.08    0.90
  YS02001767YS02001765 CONDUIT     71.10     0  04:28      0.26    0.09    0.76
  YS02006561YS02001783 CONDUIT    141.62     0  03:03      1.45    0.07    0.25
  YS02001783YS02001784 CONDUIT    141.62     0  03:03      0.95    0.20    0.34
  YS02001784YS02001785 CONDUIT    142.68     0  03:04      0.98    0.33    0.33
  YS02001788YS02001790 CONDUIT    142.80     0  03:04      1.51    0.11    0.24
  YS02001790YS02001791 CONDUIT    142.95     0  03:05      1.77    0.16    0.22
  YS02001791YS02001793 CONDUIT    153.79     0  03:05      3.45    0.07    0.34
  YS02001910YS02001907 CONDUIT     43.57     0  03:05      0.50    0.02    0.60
  YS02001786YS02001788 CONDUIT    142.74     0  03:04      1.36    0.28    0.26
  YS02001915YS02001910 CONDUIT     43.52     0  03:01      0.44    0.02    0.39
  YS02001918YS02001915 CONDUIT     15.41     0  03:05      0.44    0.01    0.17
  YS02001923YS02001920 CONDUIT     12.57     0  03:03      0.29    0.01    0.10
  YS02001926YS02001923 CONDUIT     12.53     0  03:03      0.35    0.02    0.09
  YS02001929YS02001926 CONDUIT     12.54     0  03:01      0.36    0.01    0.09
  YS02001920YS02001918 CONDUIT     15.42     0  03:04      0.33    0.01    0.11
  YS02001629YS02163301 CONDUIT     32.81     0  04:00      0.08    0.04    0.69
  YS02001619YS02001622 CONDUIT     28.26     0  02:54      0.50    0.04    0.31
  YS02001622YS02001625 CONDUIT     31.60     0  02:54      0.16    0.02    0.47
  YS02001625YS02001629 CONDUIT     30.32     0  02:55      0.16    0.01    0.46
  YS02163301YS02001633 CONDUIT     35.03     0  02:55      0.07    0.03    0.74
  YS02163601YS02164001 CONDUIT     62.63     0  03:59      0.10    0.06    0.80
  YS02164001YS02001641 CONDUIT     63.51     0  03:59      0.10    0.09    0.78
  YS02001641YS02001644 CONDUIT     61.24     0  03:57      0.11    0.20    0.79
  YS02001647YS02001649 CONDUIT     94.69     0  03:57      0.17    0.05    0.73
  YS02006553YS02006556 CONDUIT     96.96     0  03:05      0.18    0.08    0.68
  YS02006556YS02006558 CONDUIT     97.04     0  03:05      0.16    0.08    0.71
  YSB6556YSB1171       CONDUIT      5.43     0  02:33      0.03    0.01    0.48
  YS02001907YS02006553 CONDUIT     96.84     0  03:05      0.14    0.11    0.78
  YS02006558YS02006561 CONDUIT    141.62     0  03:03      1.86    0.31    0.31
  YS02001633YS02163601 CONDUIT     61.46     0  02:55      0.11    0.06    0.79
  YS02001644YS02001647 CONDUIT     89.97     0  02:56      0.18    0.05    0.70
  YS02001745YS02001748 CONDUIT     31.36     0  03:01      1.12    0.01    0.08
  YS02001748YS02001751 CONDUIT     34.93     0  03:51      0.89    0.02    0.25
  YS02001751YS02001754 CONDUIT     91.69     0  04:31      0.80    0.04    0.46
  YS02001754YS02001757 CONDUIT    140.40     0  04:29      0.33    0.06    0.80
  YS02001882YS02001884 CONDUIT      1.72     0  02:23      0.06    0.00    0.32
  YS02001884YS02001887 CONDUIT      5.30     0  02:09      0.04    0.01    0.41
  YS02001890YS02001895 CONDUIT     53.57     0  03:01      0.19    0.02    0.39
  YS02001895YS02001898 CONDUIT     53.41     0  03:02      0.39    0.09    0.25
  YS02001898YS02001901 CONDUIT     53.43     0  03:02      0.24    0.03    0.33
  YS02001901YS02001904 CONDUIT     53.33     0  03:03      0.19    0.08    0.38
  YS02001904YS02001907 CONDUIT     53.42     0  03:03      0.12    0.02    0.54
  YS02001887YS02001890 CONDUIT     53.72     0  03:01      0.15    0.09    0.47
  YS02001652YS02001649 CONDUIT     55.70     0  04:28      0.24    0.03    0.74
  YS02001655YS02001652 CONDUIT     46.10     0  03:07      0.86    0.02    0.49
  YS02001658YS02001655 CONDUIT     38.16     0  03:01      1.01    0.02    0.23
  YS02001661YS02001658 CONDUIT     38.17     0  03:01      1.14    0.01    0.09
  YS02001664YS02001661 CONDUIT     38.18     0  03:01      0.75    0.01    0.12
  YSB1154YSB6556       CONDUIT      5.38     0  02:29      0.19    0.01    0.37
  YSB1174YSB1171       CONDUIT      4.94     0  02:21      0.03    0.01    0.48
  YSB1171HS02004479    CONDUIT      9.94     0  02:31      0.54    0.01    0.36
  HS02004881HS02006253 CONDUIT     15.83     0  02:30      1.17    0.00    0.21
  YS02001793JiankangQianchi CONDUIT    613.24     0  03:05     10.29    0.05    0.71
  YS02001757CaochengTiaoxuchi CONDUIT    213.20     0  03:06      0.60    0.09    0.58
  WSF200WS02003060     CONDUIT    385.61     0  04:12      1.92    0.09    0.24
  1                    CONDUIT    485.82     0  05:27      2.72    0.17    0.28
  2                    CONDUIT     64.41     0  04:00      4.28    0.15    0.27
  3                    CONDUIT    459.41     0  05:00     10.14    0.73    0.64
  4                    CONDUIT      0.00     0  00:00      0.00    0.00    0.00
  CC-Pump-1            PUMP       200.00     0  03:50              1.00
  CC-Pump-2            PUMP       200.00     0  03:50              1.00
  JK-Pump-1            PUMP       300.00     0  05:00              1.00
  JK-Pump-2            PUMP       300.00     0  03:10              1.00
  XR-Pump-1            PUMP        95.00     0  00:00              1.00
  XR-Pump-2            PUMP        94.87     0  04:50              1.00
  XR-Pump-3            PUMP         0.00     0  00:00              0.00
  XR-Pump-4            PUMP        95.00     0  01:00              1.00
  
  
  ***************************
  Flow Classification Summary
  ***************************
  
  -------------------------------------------------------------------------------------
                      Adjusted    ---------- Fraction of Time in Flow Class ---------- 
                       /Actual         Up    Down  Sub   Sup   Up    Down  Norm  Inlet 
  Conduit               Length    Dry  Dry   Dry   Crit  Crit  Crit  Crit  Ltd   Ctrl  
  -------------------------------------------------------------------------------------
  WS02003066WSF200        1.00   0.07  0.00  0.00  0.00  0.93  0.00  0.00  0.83  0.00
  WS02006287WS02006284    1.00   0.05  0.02  0.00  0.74  0.18  0.00  0.00  0.81  0.00
  WS02006284WS02006280    1.00   0.06  0.00  0.00  0.00  0.00  0.00  0.94  0.00  0.00
  WS02006280WS02006229    1.00   0.06  0.00  0.00  0.00  0.00  0.00  0.94  0.00  0.00
  WS02006229WS02006228    1.00   0.00  0.00  0.00  1.00  0.00  0.00  0.00  0.00  0.00
  WS02006256WS02006235    1.00   0.02  0.00  0.00  0.98  0.00  0.00  0.00  0.00  0.00
  WS02006253WS02006251    1.00   0.01  0.04  0.00  0.94  0.00  0.01  0.00  0.00  0.00
  WS02006252WS02006251    1.00   0.13  0.00  0.00  0.00  0.00  0.87  0.00  0.00  0.00
  WS02006251WS02006249    1.00   0.00  0.00  0.00  1.00  0.00  0.00  0.00  0.54  0.00
  WS02006249WS02006248    1.00   0.00  0.00  0.00  0.65  0.00  0.34  0.00  0.00  0.00
  WS02006248WS02006247    1.00   0.01  0.00  0.00  0.98  0.00  0.00  0.02  0.46  0.00
  WS02006247WS02006245    1.00   0.01  0.00  0.00  0.94  0.00  0.00  0.05  0.00  0.00
  WS02006245WS02006243    1.00   0.01  0.00  0.00  0.89  0.00  0.00  0.10  0.04  0.00
  WS02006243WS02006242    1.00   0.01  0.00  0.00  0.98  0.00  0.00  0.01  0.38  0.00
  WS02006242WS02006240    1.00   0.01  0.01  0.00  0.98  0.00  0.00  0.00  0.00  0.00
  WS02006240WS02006239    1.00   0.02  0.00  0.00  0.90  0.00  0.00  0.08  0.02  0.00
  WS02006239WS02006238    1.00   0.02  0.00  0.00  0.98  0.00  0.00  0.00  0.10  0.00
  WS02006238WS02006235    1.00   0.02  0.00  0.00  0.98  0.00  0.00  0.00  0.00  0.00
  WS02006235WS02006234    1.00   0.02  0.00  0.00  0.92  0.00  0.06  0.00  0.00  0.00
  WS02006234WS02006232    1.00   0.02  0.00  0.00  0.98  0.00  0.00  0.00  0.11  0.00
  WS02006232WS02006231    1.00   0.02  0.00  0.00  0.98  0.00  0.00  0.00  0.00  0.00
  WS02006231WS02006230    1.00   0.02  0.00  0.00  0.06  0.00  0.92  0.00  0.00  0.00
  WS02006230WS02006229    1.00   0.00  0.00  0.00  0.99  0.00  0.00  0.01  0.00  0.00
  WS02006228WS02006109    1.00   0.00  0.00  0.00  1.00  0.00  0.00  0.00  0.01  0.00
  WS02006116WS02004401    1.00   0.04  0.00  0.00  0.96  0.00  0.00  0.00  0.00  0.00
  WS02006115WS02006116    1.00   0.04  0.00  0.00  0.95  0.00  0.00  0.01  0.00  0.00
  WS02006113WS02006111    1.00   0.02  0.00  0.00  0.01  0.97  0.00  0.00  0.19  0.00
  WS02006112WS02006115    1.00   0.02  0.02  0.00  0.95  0.00  0.01  0.00  0.00  0.00
  WS02006111WS02006112    1.00   0.02  0.00  0.00  0.96  0.01  0.00  0.01  0.92  0.00
  WS02006110WS02006113    1.00   0.00  0.01  0.00  0.98  0.00  0.00  0.00  0.00  0.00
  WS02006109WS02006110    1.00   0.00  0.00  0.00  0.99  0.00  0.00  0.00  0.00  0.00
  WS02004411WS02004412    1.00   0.06  0.00  0.00  0.94  0.00  0.00  0.00  0.00  0.00
  WS02004401WS02004402    1.00   0.04  0.00  0.00  0.96  0.00  0.00  0.00  0.00  0.00
  WS02004413WS02003067    1.00   0.06  0.01  0.00  0.00  0.00  0.93  0.00  0.00  0.00
  WS02004412WS02004413    1.00   0.06  0.00  0.00  0.94  0.00  0.00  0.00  0.01  0.00
  WS02004410WS02004411    1.00   0.06  0.00  0.00  0.94  0.00  0.00  0.00  0.00  0.00
  WS02004409WS02004410    1.00   0.06  0.00  0.00  0.94  0.00  0.00  0.00  0.01  0.00
  WS02004407WS02004409    1.00   0.06  0.00  0.00  0.94  0.00  0.00  0.00  0.88  0.00
  WS02004406WS02004407    1.00   0.00  0.06  0.00  0.94  0.00  0.00  0.00  0.00  0.00
  WS02004405WS02004406    1.00   0.00  0.00  0.00  1.00  0.00  0.00  0.00  0.04  0.00
  WS02004404WS02004405    1.00   0.00  0.00  0.00  1.00  0.00  0.00  0.00  0.00  0.00
  WS02004403WS02004404    1.00   0.00  0.05  0.00  0.95  0.00  0.00  0.00  0.00  0.00
  WS02004402WS02004403    1.00   0.05  0.00  0.00  0.95  0.00  0.00  0.00  0.00  0.00
  WS02004139WS02001211    1.00   0.00  0.00  0.00  1.00  0.00  0.00  0.00  0.00  0.00
  WS02004138WS02004139    1.00   0.00  0.01  0.00  0.99  0.00  0.00  0.00  1.00  0.00
  WS02003067WS02003066    1.00   0.07  0.00  0.00  0.93  0.00  0.00  0.00  0.00  0.00
  WS02001213WS02003059    1.00   0.00  0.00  0.00  1.00  0.00  0.00  0.00  0.00  0.00
  WS02001212WS02001213    1.00   0.00  0.00  0.00  0.36  0.00  0.64  0.00  0.00  0.00
  WS02001211WS02001212    1.00   0.00  0.00  0.00  1.00  0.00  0.00  0.00  0.00  0.00
  WS02003072WS02003073    1.00   0.00  0.00  0.00  0.00  0.00  0.00  1.00  0.00  0.00
  WS02003069WS02003072    1.00   0.00  0.00  0.00  1.00  0.00  0.00  0.00  0.88  0.00
  WS02003060WS02003069    1.00   0.00  0.00  0.00  1.00  0.00  0.00  0.00  0.57  0.00
  WS02003059WS02003060    1.00   0.00  0.00  0.00  1.00  0.00  0.00  0.00  0.02  0.00
  HS02004901HS02004770    1.00   0.06  0.00  0.00  0.94  0.00  0.00  0.00  0.03  0.00
  HS02004876HS02004881    1.00   0.01  0.00  0.00  0.99  0.00  0.00  0.00  0.00  0.00
  HS02004870HS02004876    1.00   0.00  0.00  0.00  1.00  0.00  0.00  0.00  0.95  0.00
  HS02004842HS02004848    1.00   0.00  0.07  0.00  0.93  0.00  0.00  0.00  0.71  0.00
  HS02004837HS02004842    1.00   0.00  0.00  0.00  1.00  0.00  0.00  0.00  0.11  0.00
  HS02004830HS02004837    1.00   0.00  0.00  0.00  1.00  0.00  0.00  0.00  0.99  0.00
  HS02004824HS02004830    1.00   0.00  0.00  0.00  1.00  0.00  0.00  0.00  0.00  0.00
  HS02004817HS02004824    1.00   0.00  0.00  0.00  1.00  0.00  0.00  0.00  1.00  0.00
  HS02004770HS02004777    1.00   0.00  0.06  0.00  0.94  0.00  0.00  0.00  0.08  0.00
  HS02004799HS02004480    1.00   0.00  0.01  0.00  0.92  0.00  0.07  0.00  0.00  0.00
  HS02004792HS02004799    1.00   0.00  0.00  0.00  1.00  0.00  0.00  0.00  0.98  0.00
  HS02004788HS02004792    1.00   0.00  0.00  0.00  1.00  0.00  0.00  0.00  0.98  0.00
  HS02004785HS02004788    1.00   0.00  0.00  0.00  1.00  0.00  0.00  0.00  0.00  0.00
  HS02004777HS02004785    1.00   0.00  0.00  0.00  1.00  0.00  0.00  0.00  0.22  0.00
  HS02004480HS02004478    1.00   0.07  0.00  0.00  0.75  0.00  0.00  0.18  0.00  0.00
  HS02004479HS02004480    1.00   0.01  0.00  0.00  0.99  0.00  0.00  0.00  0.16  0.00
  HS02004862HS02004870    1.00   0.00  0.00  0.00  1.00  0.00  0.00  0.00  0.05  0.00
  HS02004848HS02004852    1.00   0.07  0.00  0.00  0.93  0.00  0.00  0.00  0.68  0.00
  HS02004856HS02004862    1.00   0.00  0.10  0.00  0.90  0.00  0.00  0.00  0.72  0.00
  HS02004852HS02004856    1.00   0.06  0.01  0.00  0.92  0.00  0.00  0.00  0.82  0.00
  HS02004802HS02004478    1.00   0.06  0.01  0.00  0.93  0.00  0.00  0.00  0.00  0.00
  HS02004478WS02006287    1.00   0.08  0.00  0.00  0.92  0.00  0.00  0.00  0.81  0.00
  HS02004817HS02004807    1.00   0.00  0.06  0.00  0.94  0.00  0.00  0.00  0.00  0.00
  HS02004807HS02004802    1.00   0.06  0.00  0.00  0.93  0.00  0.00  0.00  0.01  0.00
  YS02001759YS02001757    1.00   0.00  0.00  0.00  1.00  0.00  0.00  0.00  0.17  0.00
  YS02001762YS02001759    1.00   0.00  0.00  0.00  1.00  0.00  0.00  0.00  0.05  0.00
  YS02001765YS02001762    1.00   0.00  0.00  0.00  1.00  0.00  0.00  0.00  0.24  0.00
  YS02001770YS02001767    1.00   0.00  0.00  0.00  1.00  0.00  0.00  0.00  0.00  0.00
  YS02001774YS02001770    1.00   0.00  0.08  0.00  0.92  0.00  0.00  0.00  0.07  0.00
  YS02001779YS02001774    1.00   0.00  0.00  0.00  1.00  0.00  0.00  0.00  0.29  0.00
  YS02001649YS02001757    1.00   0.00  0.00  0.00  1.00  0.00  0.00  0.00  0.20  0.00
  YS02001767YS02001765    1.00   0.00  0.00  0.00  1.00  0.00  0.00  0.00  0.01  0.00
  YS02006561YS02001783    1.00   0.10  0.00  0.00  0.00  0.90  0.00  0.00  0.72  0.00
  YS02001783YS02001784    1.00   0.00  0.10  0.00  0.90  0.00  0.00  0.00  0.17  0.00
  YS02001784YS02001785    1.00   0.00  0.00  0.00  1.00  0.00  0.00  0.00  0.27  0.00
  YS02001788YS02001790    1.00   0.00  0.00  0.00  0.11  0.89  0.00  0.00  0.99  0.00
  YS02001790YS02001791    1.00   0.00  0.00  0.00  0.00  1.00  0.00  0.00  0.30  0.00
  YS02001791YS02001793    1.00   0.00  0.00  0.00  0.00  1.00  0.00  0.00  0.01  0.00
  YS02001910YS02001907    1.00   0.00  0.00  0.00  0.99  0.00  0.00  0.01  0.13  0.00
  YS02001786YS02001788    1.00   0.00  0.00  0.00  0.17  0.83  0.00  0.00  0.00  0.00
  YS02001915YS02001910    1.00   0.00  0.00  0.00  1.00  0.00  0.00  0.00  0.26  0.00
  YS02001918YS02001915    1.00   0.00  0.00  0.00  0.99  0.00  0.00  0.00  0.80  0.00
  YS02001923YS02001920    1.00   0.00  0.00  0.00  1.00  0.00  0.00  0.00  1.00  0.00
  YS02001926YS02001923    1.00   0.00  0.02  0.00  0.00  0.00  0.98  0.00  0.00  0.00
  YS02001929YS02001926    1.00   0.00  0.06  0.00  0.94  0.00  0.00  0.00  0.86  0.00
  YS02001920YS02001918    1.00   0.00  0.00  0.00  1.00  0.00  0.00  0.00  0.00  0.00
  YS02001629YS02163301    1.00   0.09  0.01  0.00  0.90  0.00  0.00  0.00  0.00  0.00
  YS02001619YS02001622    1.00   0.06  0.00  0.00  0.94  0.00  0.00  0.00  0.00  0.00
  YS02001622YS02001625    1.00   0.06  0.00  0.00  0.94  0.00  0.00  0.00  0.15  0.00
  YS02001625YS02001629    1.00   0.07  0.04  0.00  0.87  0.00  0.02  0.00  0.00  0.00
  YS02163301YS02001633    1.00   0.00  0.09  0.00  0.91  0.00  0.00  0.00  0.00  0.00
  YS02163601YS02164001    1.00   0.00  0.03  0.00  0.97  0.00  0.00  0.00  0.00  0.00
  YS02164001YS02001641    1.00   0.00  0.03  0.00  0.97  0.00  0.00  0.00  0.07  0.00
  YS02001641YS02001644    1.00   0.00  0.00  0.00  1.00  0.00  0.00  0.00  0.00  0.00
  YS02001647YS02001649    1.00   0.00  0.10  0.00  0.90  0.00  0.00  0.00  0.01  0.00
  YS02006553YS02006556    1.00   0.00  0.00  0.00  1.00  0.00  0.00  0.00  0.03  0.00
  YS02006556YS02006558    1.00   0.00  0.00  0.00  1.00  0.00  0.00  0.00  0.00  0.00
  YSB6556YSB1171          1.00   0.01  0.05  0.00  0.94  0.00  0.00  0.00  0.00  0.00
  YS02001907YS02006553    1.00   0.00  0.01  0.00  0.99  0.00  0.00  0.00  0.00  0.00
  YS02006558YS02006561    1.00   0.10  0.00  0.00  0.00  0.90  0.00  0.00  0.70  0.00
  YS02001633YS02163601    1.00   0.00  0.00  0.00  1.00  0.00  0.00  0.00  0.20  0.00
  YS02001644YS02001647    1.00   0.00  0.10  0.00  0.90  0.00  0.00  0.00  0.00  0.00
  YS02001745YS02001748    1.00   0.00  0.00  0.00  0.00  0.00  0.00  1.00  0.00  0.00
  YS02001748YS02001751    1.00   0.00  0.00  0.00  0.96  0.04  0.00  0.00  0.38  0.00
  YS02001751YS02001754    1.00   0.00  0.00  0.00  0.89  0.00  0.00  0.11  0.03  0.00
  YS02001754YS02001757    1.00   0.00  0.00  0.00  1.00  0.00  0.00  0.00  0.28  0.00
  YS02001882YS02001884    1.00   0.09  0.01  0.00  0.91  0.00  0.00  0.00  0.00  0.00
  YS02001884YS02001887    1.00   0.02  0.04  0.00  0.94  0.00  0.00  0.00  0.00  0.00
  YS02001890YS02001895    1.00   0.00  0.09  0.00  0.91  0.00  0.00  0.00  0.00  0.00
  YS02001895YS02001898    1.00   0.09  0.00  0.00  0.89  0.00  0.01  0.00  0.00  0.00
  YS02001898YS02001901    1.00   0.09  0.01  0.00  0.90  0.00  0.00  0.00  0.02  0.00
  YS02001901YS02001904    1.00   0.09  0.00  0.00  0.91  0.00  0.00  0.00  0.00  0.00
  YS02001904YS02001907    1.00   0.00  0.09  0.00  0.91  0.00  0.00  0.00  0.00  0.00
  YS02001887YS02001890    1.00   0.00  0.00  0.00  0.99  0.00  0.01  0.00  0.00  0.00
  YS02001652YS02001649    1.00   0.00  0.00  0.00  1.00  0.00  0.00  0.00  0.28  0.00
  YS02001655YS02001652    1.00   0.00  0.00  0.00  0.89  0.00  0.00  0.11  0.03  0.00
  YS02001658YS02001655    1.00   0.00  0.08  0.00  0.88  0.04  0.00  0.00  0.73  0.00
  YS02001661YS02001658    1.00   0.08  0.00  0.00  0.00  0.92  0.00  0.00  0.72  0.00
  YS02001664YS02001661    1.00   0.06  0.00  0.00  0.94  0.00  0.00  0.00  0.86  0.00
  YSB1154YSB6556          1.00   0.06  0.00  0.00  0.94  0.00  0.00  0.00  0.02  0.00
  YSB1174YSB1171          1.00   0.01  0.04  0.00  0.95  0.00  0.00  0.00  0.00  0.00
  YSB1171HS02004479       1.00   0.01  0.00  0.00  0.99  0.00  0.00  0.00  0.13  0.00
  HS02004881HS02006253    1.00   0.01  0.00  0.00  0.45  0.02  0.00  0.52  0.26  0.00
  YS02001793JiankangQianchi    1.00   0.00  0.00  0.00  0.64  0.36  0.00  0.00  0.67  0.00
  YS02001757CaochengTiaoxuchi    1.00   0.00  0.13  0.00  0.87  0.00  0.00  0.00  0.00  0.00
  WSF200WS02003060        1.00   0.00  0.07  0.00  0.31  0.62  0.00  0.00  0.47  0.00
  1                       1.00   0.00  0.00  0.00  0.00  1.00  0.00  0.00  0.24  0.00
  2                       1.00   0.96  0.00  0.00  0.00  0.04  0.00  0.00  0.01  0.00
  3                       1.00   0.64  0.00  0.00  0.00  0.36  0.00  0.00  0.30  0.00
  4                       1.00   1.00  0.00  0.00  0.00  0.00  0.00  0.00  0.00  0.00
  
  
  *************************
  Conduit Surcharge Summary
  *************************
  
  ----------------------------------------------------------------------------
                                                           Hours        Hours 
                         --------- Hours Full --------   Above Full   Capacity
  Conduit                Both Ends  Upstream  Dnstream   Normal Flow   Limited
  ----------------------------------------------------------------------------
  WS02006229WS02006228        0.01      0.06      0.01      0.65         0.01
  WS02006256WS02006235        4.12      4.12      6.20      1.82         0.01
  WS02006252WS02006251        0.21      0.21      0.29      0.27         0.01
  WS02006251WS02006249        0.01      0.01      0.01      0.20         0.01
  WS02006249WS02006248        0.01      0.01      0.01      1.52         0.01
  WS02006247WS02006245        0.01      0.01      0.01      2.18         0.01
  WS02006245WS02006243        0.01      0.01      0.01      0.12         0.01
  WS02006242WS02006240        0.01      0.01      0.01      0.28         0.01
  WS02006240WS02006239        0.01      0.01      0.01      0.17         0.01
  WS02006239WS02006238        0.01      0.01      0.01      0.17         0.01
  WS02006238WS02006235        0.01      0.01      0.07      0.01         0.01
  WS02006235WS02006234        0.01      0.01      0.01      4.01         0.01
  WS02006234WS02006232        0.01      0.01      0.08      0.01         0.01
  WS02006232WS02006231        0.01      0.01      0.08      0.01         0.01
  WS02006231WS02006230        0.01      0.01      0.01      4.45         0.01
  WS02006230WS02006229        0.24      0.38      0.24      5.09         0.24
  WS02006228WS02006109        0.02      0.12      0.02      1.46         0.02
  WS02006111WS02006112        0.01      0.01      0.64      0.01         0.01
  WS02006110WS02006113        0.01      0.01      0.09      0.01         0.01
  WS02006109WS02006110        0.01      0.01      0.12      0.01         0.01
  WS02004404WS02004405        0.01      0.01      0.01      4.66         0.01
  WS02003072WS02003073        0.01      0.01      0.01      0.08         0.01
  YS02001793JiankangQianchi        0.01      0.01      2.60      0.01         0.01
  
  
  ***************
  Pumping Summary
  ***************
  
  ---------------------------------------------------------------------------------------------------------
                                                  Min       Avg       Max     Total     Power    % Time Off
                        Percent   Number of      Flow      Flow      Flow    Volume     Usage    Pump Curve
  Pump                 Utilized   Start-Ups       LPS       LPS       LPS  10^6 ltr     Kw-hr    Low   High
  ---------------------------------------------------------------------------------------------------------
  CC-Pump-1               27.66           5      0.00    109.41    200.00     0.840      3.38    0.0  100.0
  CC-Pump-2               31.92           5      0.00    125.04    200.00     1.080      4.28    0.0  100.0
  JK-Pump-1               29.78           6      0.00    124.03    300.00     0.847     13.82    0.0    0.0
  JK-Pump-2               36.16           4      0.00    128.41    300.00     0.931     15.50    0.0    0.0
  XR-Pump-1               55.33           6      0.00     62.79     95.00     0.941      4.99    0.0    0.0
  XR-Pump-2                4.25           1      0.00     39.29     94.87     0.057      0.25    0.0    0.0
  XR-Pump-3                0.00           0      0.00      0.00      0.00     0.000      0.00    0.0    0.0
  XR-Pump-4               48.92           9      0.00     48.86     95.00     0.712      3.15    0.0    0.0
  

  Analysis begun on:  Wed Jan  5 23:41:31 2022
  Analysis ended on:  Wed Jan  5 23:41:33 2022
  Total elapsed time: 00:00:02