
  EPA STORM WATER MANAGEMENT MODEL - VERSION 5.1 (Build 5.3.0.dev0)
  --------------------------------------------------------------

  WARNING 04: minimum elevation drop used for Conduit WS02004404WS02004405
  WARNING 03: negative offset ignored for Link YS02001904YS02001907
  
  *********************************************************
  NOTE: The summary statistics displayed in this report are
  based on results found at every computational time step,  
  not just on results from each reporting time step.
  *********************************************************
  
  ****************
  Analysis Options
  ****************
  Flow Units ............... LPS
  Process Models:
    Rainfall/Runoff ........ YES
    RDII ................... NO
    Snowmelt ............... NO
    Groundwater ............ NO
    Flow Routing ........... YES
    Ponding Allowed ........ NO
    Water Quality .......... NO
  Infiltration Method ...... HORTON
  Flow Routing Method ...... DYNWAVE
  Surcharge Method ......... EXTRAN
  Starting Date ............ 08/28/2015 08:00:00
  Ending Date .............. 08/28/2015 15:50:00
  Antecedent Dry Days ...... 8.0
  Report Time Step ......... 00:01:00
  Wet Time Step ............ 00:01:00
  Dry Time Step ............ 00:01:00
  Routing Time Step ........ 5.00 sec
  Variable Time Step ....... YES
  Maximum Trials ........... 8
  Number of Threads ........ 4
  Head Tolerance ........... 0.001500 m
  
  
  **************************        Volume         Depth
  Runoff Quantity Continuity     hectare-m            mm
  **************************     ---------       -------
  Total Precipitation ......         2.984         6.533
  Evaporation Loss .........         0.000         0.000
  Infiltration Loss ........         0.753         1.648
  Surface Runoff ...........         1.324         2.899
  Final Storage ............         0.907         1.987
  Continuity Error (%) .....        -0.018
  
  
  **************************        Volume        Volume
  Flow Routing Continuity        hectare-m      10^6 ltr
  **************************     ---------     ---------
  Dry Weather Inflow .......         0.616         6.165
  Wet Weather Inflow .......         1.324        13.235
  Groundwater Inflow .......         0.000         0.000
  RDII Inflow ..............         0.000         0.000
  External Inflow ..........         0.102         1.024
  External Outflow .........         0.751         7.506
  Flooding Loss ............         0.756         7.562
  Evaporation Loss .........         0.000         0.000
  Exfiltration Loss ........         0.000         0.000
  Initial Stored Volume ....         0.076         0.761
  Final Stored Volume ......         0.618         6.180
  Continuity Error (%) .....        -0.300
  
  
  *************************
  Highest Continuity Errors
  *************************
  Node YS02001774 (44.05%)
  Node HS02004842 (26.48%)
  Node YS02001884 (20.80%)
  Node YSB1171 (6.19%)
  Node YS02001625 (5.01%)
  
  
  ***************************
  Time-Step Critical Elements
  ***************************
  Link WS02006252WS02006251 (39.40%)
  Link 3 (37.81%)
  Link WS02006280WS02006229 (10.21%)
  Link WS02006238WS02006235 (4.70%)
  Link WS02003066WSF200 (1.96%)
  
  
  ********************************
  Highest Flow Instability Indexes
  ********************************
  Link WS02006113WS02006111 (45)
  Link YS02006558YS02006561 (12)
  Link WS02006111WS02006112 (9)
  Link YS02001793JiankangQianchi (7)
  Link YS02001791YS02001793 (6)
  
  
  *************************
  Routing Time Step Summary
  *************************
  Minimum Time Step           :     0.50 sec
  Average Time Step           :     1.39 sec
  Maximum Time Step           :     5.00 sec
  Percent in Steady State     :    -0.00
  Average Iterations per Step :     2.69
  Percent Not Converging      :     7.61
  
  
  ***************************
  Subcatchment Runoff Summary
  ***************************
  
  ------------------------------------------------------------------------------------------------------------------------------
                            Total      Total      Total      Total     Imperv       Perv      Total       Total     Peak  Runoff
                           Precip      Runon       Evap      Infil     Runoff     Runoff     Runoff      Runoff   Runoff   Coeff
  Subcatchment                 mm         mm         mm         mm         mm         mm         mm    10^6 ltr      LPS
  ------------------------------------------------------------------------------------------------------------------------------
  sub0                       6.53       0.00       0.00       0.46       4.81       0.00       4.81        0.00     1.70   0.736
  sub1                       6.53       0.00       0.00       0.72       4.56       0.00       4.56        0.03     8.92   0.698
  sub2                       6.53       0.00       0.00       2.42       3.21       0.00       3.21        0.03     7.90   0.491
  sub3                       6.53       0.00       0.00       2.42       3.17       0.00       3.17        0.07    16.25   0.486
  sub4                       6.53       0.00       0.00       0.72       4.42       0.00       4.42        0.09    18.23   0.676
  sub5                       6.53       0.00       0.00       0.46       4.76       0.00       4.76        0.05    15.87   0.729
  sub7                       6.53       0.00       0.00       0.59       4.69       0.00       4.69        0.02     5.60   0.718
  sub8                       6.53       0.00       0.00       0.59       4.68       0.00       4.68        0.03     9.88   0.717
  sub9                       6.53       0.00       0.00       0.59       4.68       0.00       4.68        0.02     7.33   0.716
  sub10                      6.53       0.00       0.00       0.52       4.72       0.00       4.72        0.05    15.85   0.722
  sub11                      6.53       0.00       0.00       0.52       4.74       0.00       4.74        0.06    18.60   0.725
  sub12                      6.53       0.00       0.00       0.85       4.49       0.00       4.49        0.04    15.74   0.688
  sub14                      6.53       0.00       0.00       0.59       4.68       0.00       4.68        0.04    14.32   0.716
  sub15                      6.53       0.00       0.00       1.96       3.59       0.00       3.59        0.06    19.42   0.550
  sub16                      6.53       0.00       0.00       2.16       3.46       0.00       3.46        0.04    13.85   0.529
  sub17                      6.53       0.00       0.00       2.09       3.51       0.00       3.51        0.03    11.18   0.537
  sub22                      6.53       0.00       0.00       2.81       2.94       0.00       2.94        0.19    63.64   0.449
  sub23                      6.53       0.00       0.00       2.42       3.25       0.00       3.25        0.15    54.16   0.497
  sub60                      6.53       0.00       0.00       0.78       3.24       0.00       3.24        0.98    93.37   0.497
  sub61                      6.53       0.00       0.00       1.11       3.44       0.00       3.44        1.06   116.86   0.527
  sub62                      6.53       0.00       0.00       0.52       3.70       0.00       3.70        1.14   119.50   0.567
  sub63                      6.53       0.00       0.00       1.89       3.06       0.00       3.06        0.93   108.99   0.468
  sub64                      6.53       0.00       0.00       0.98       3.10       0.00       3.10        0.94    88.71   0.475
  sub65                      6.53       0.00       0.00       0.85       3.14       0.00       3.14        0.97    90.05   0.481
  sub66                      6.53       0.00       0.00       1.89       2.70       0.00       2.70        0.83    81.23   0.414
  sub67                      6.53       0.00       0.00       0.52       4.05       0.00       4.05        1.25   153.14   0.619
  sub68                      6.53       0.00       0.00       0.91       3.66       0.00       3.66        1.13   129.14   0.560
  sub69                      6.53       0.00       0.00       0.98       3.92       0.00       3.92        0.92   128.07   0.601
  sub70                      6.53       4.01       0.00       3.58       4.89       0.00       4.89        1.12   104.96   0.464
  sub71                      6.53       0.00       0.00       0.52       3.55       0.00       3.55        0.84    83.47   0.543
  sub72                      6.53       0.00       0.00       0.46       2.55       0.00       2.55        0.52    39.79   0.390
  sub73                      6.53       4.76       0.00       3.84       5.03       0.00       5.03        1.18    90.59   0.445
  sub74                      6.53       0.00       0.00       4.90       1.18       0.00       1.18        0.47    71.42   0.181
  
  
  ******************
  Node Depth Summary
  ******************
  
  ---------------------------------------------------------------------------------
                                 Average  Maximum  Maximum  Time of Max    Reported
                                   Depth    Depth      HGL   Occurrence   Max Depth
  Node                 Type       Meters   Meters   Meters  days hr:min      Meters
  ---------------------------------------------------------------------------------
  WS02001211           JUNCTION     0.46     0.60     5.44     0  06:51        0.60
  WS02001212           JUNCTION     0.22     0.33     5.39     0  06:12        0.33
  WS02001213           JUNCTION     0.44     0.58     5.34     0  06:12        0.58
  WS02003069           JUNCTION     0.28     0.42     5.00     0  06:13        0.42
  WS02003072           JUNCTION     0.35     0.49     4.86     0  06:14        0.49
  WS02003073           JUNCTION     0.20     0.29     4.36     0  06:15        0.29
  WS02003060           JUNCTION     0.25     0.37     5.31     0  06:13        0.37
  WS02003066           JUNCTION     0.18     0.27     5.82     0  02:45        0.27
  WS02003059           JUNCTION     0.51     0.64     5.33     0  06:12        0.64
  WS02003067           JUNCTION     0.47     0.65     5.97     0  02:44        0.65
  WS02004401           JUNCTION     0.54     0.77     6.77     0  02:41        0.77
  WS02004402           JUNCTION     0.57     0.80     6.76     0  02:41        0.80
  WS02004403           JUNCTION     0.60     0.82     6.75     0  02:41        0.82
  WS02004404           JUNCTION     0.67     0.89     6.74     0  02:41        0.89
  WS02004406           JUNCTION     0.68     0.90     6.73     0  02:41        0.90
  WS02004409           JUNCTION     0.35     0.58     6.35     0  02:43        0.58
  WS02004410           JUNCTION     0.38     0.60     6.32     0  02:44        0.60
  WS02004411           JUNCTION     0.40     0.62     6.30     0  02:44        0.62
  WS02004412           JUNCTION     0.42     0.63     6.27     0  02:44        0.63
  WS02004413           JUNCTION     0.58     0.79     6.26     0  02:44        0.79
  WS02004405           JUNCTION     0.67     0.89     6.74     0  02:41        0.89
  WS02006109           JUNCTION     0.62     0.87     7.48     0  02:36        0.87
  WS02006110           JUNCTION     0.63     0.85     7.43     0  02:37        0.85
  WS02006111           JUNCTION     0.17     0.26     6.97     0  02:37        0.26
  WS02006112           JUNCTION     0.69     0.95     6.83     0  02:40        0.95
  WS02006113           JUNCTION     0.25     0.41     7.30     0  02:37        0.41
  WS02006115           JUNCTION     0.43     0.66     6.80     0  02:40        0.66
  WS02006116           JUNCTION     0.51     0.74     6.78     0  02:40        0.74
  WS02006230           JUNCTION     0.54     0.85     7.60     0  02:36        0.85
  WS02006231           JUNCTION     0.34     0.57     7.70     0  05:54        0.57
  WS02006232           JUNCTION     0.46     0.73     7.77     0  05:54        0.73
  WS02006234           JUNCTION     0.36     0.67     7.83     0  05:53        0.67
  WS02006235           JUNCTION     0.39     0.71     7.87     0  05:53        0.71
  WS02006238           JUNCTION     0.41     0.74     7.88     0  05:53        0.74
  WS02006240           JUNCTION     0.30     0.66     7.96     0  05:53        0.66
  WS02006242           JUNCTION     0.35     0.73     8.00     0  05:52        0.73
  WS02006243           JUNCTION     0.23     0.62     8.04     0  05:52        0.62
  WS02006245           JUNCTION     0.22     0.59     8.08     0  05:52        0.59
  WS02006247           JUNCTION     0.24     0.61     8.11     0  05:52        0.61
  WS02006248           JUNCTION     0.20     0.55     8.14     0  05:51        0.55
  WS02006249           JUNCTION     0.23     0.58     8.17     0  05:51        0.58
  WS02006239           JUNCTION     0.36     0.71     7.92     0  05:53        0.71
  WS02006251           JUNCTION     0.22     0.60     8.27     0  05:50        0.59
  WS02006252           JUNCTION     0.20     0.58     8.83     0  06:30        0.58
  WS02006253           JUNCTION     0.25     0.62     8.27     0  05:50        0.62
  WS02006256           JUNCTION     0.86     1.20     8.13     0  05:30        1.20
  WS02004138           JUNCTION     0.07     0.14     7.39     0  06:50        0.14
  WS02004407           JUNCTION     0.16     0.26     6.58     0  02:41        0.26
  WS02006228           JUNCTION     0.60     0.88     7.53     0  02:36        0.88
  WS02006229           JUNCTION     0.56     0.87     7.56     0  02:36        0.86
  WS02006280           JUNCTION     0.05     0.16     8.43     0  02:17        0.16
  WS02006284           JUNCTION     0.35     0.50     8.90     0  02:16        0.50
  WS02006287           JUNCTION     0.08     0.23     9.19     0  02:16        0.23
  WSF200               JUNCTION     0.15     0.26     5.49     0  02:46        0.26
  HS02004901           JUNCTION     0.11     0.25    10.07     0  02:14        0.25
  HS02004881           JUNCTION     0.01     0.03     9.06     0  02:16        0.03
  HS02004876           JUNCTION     0.03     0.11     9.14     0  02:13        0.11
  HS02004870           JUNCTION     0.01     0.05     9.33     0  02:16        0.05
  HS02004862           JUNCTION     0.01     0.05     9.44     0  02:17        0.05
  HS02004856           JUNCTION     0.07     0.11     9.53     0  02:17        0.11
  HS02004852           JUNCTION     0.01     0.03     9.54     0  02:18        0.03
  HS02004848           JUNCTION     0.01     0.03     9.63     0  02:16        0.03
  HS02004842           JUNCTION     0.33     0.36     9.63     0  02:16        0.36
  HS02004837           JUNCTION     0.03     0.05     9.63     0  02:16        0.05
  HS02004830           JUNCTION     0.04     0.07     9.53     0  02:17        0.07
  HS02004824           JUNCTION     0.02     0.04     9.45     0  02:20        0.04
  HS02004817           JUNCTION     0.42     0.54     9.39     0  02:17        0.54
  HS02004807           JUNCTION     0.11     0.22     9.39     0  02:17        0.22
  HS02004802           JUNCTION     0.14     0.25     9.38     0  02:17        0.25
  HS02004799           JUNCTION     0.10     0.28     9.49     0  02:15        0.28
  HS02004792           JUNCTION     0.02     0.11     9.63     0  02:14        0.11
  HS02004788           JUNCTION     0.02     0.08     9.98     0  02:15        0.08
  HS02004785           JUNCTION     0.03     0.15    10.05     0  02:14        0.15
  HS02004777           JUNCTION     0.13     0.27    10.07     0  02:14        0.27
  HS02004770           JUNCTION     0.10     0.24    10.07     0  02:14        0.24
  HS02004480           JUNCTION     0.06     0.22     9.46     0  02:15        0.22
  HS02004479           JUNCTION     0.10     0.26     9.46     0  02:15        0.26
  HS02004478           JUNCTION     0.05     0.14     9.37     0  02:16        0.14
  YS02001745           JUNCTION     0.56     0.85     8.37     0  04:50        0.85
  YS02001748           JUNCTION     0.92     1.29     8.37     0  04:50        1.29
  YS02001751           JUNCTION     1.10     1.49     8.37     0  04:50        1.49
  YS02001754           JUNCTION     1.34     1.76     8.37     0  04:50        1.76
  YS02001762           JUNCTION     1.53     1.97     8.37     0  04:48        1.97
  YS02001765           JUNCTION     1.48     1.92     8.37     0  04:48        1.92
  YS02001767           JUNCTION     1.45     1.89     8.38     0  04:48        1.88
  YS02001770           JUNCTION     1.44     1.88     8.38     0  04:49        1.87
  YS02001774           JUNCTION     1.51     1.95     8.37     0  04:48        1.95
  YS02001779           JUNCTION     1.27     1.68     8.37     0  04:44        1.68
  YS02001882           JUNCTION     0.28     0.51     7.22     0  02:49        0.51
  YS02001884           JUNCTION     0.37     0.61     7.22     0  02:51        0.61
  YS02001759           JUNCTION     1.56     2.01     8.37     0  04:49        2.00
  YS02001887           JUNCTION     0.45     0.69     7.22     0  02:48        0.69
  YS02001890           JUNCTION     0.48     0.72     7.22     0  02:49        0.72
  YS02001898           JUNCTION     0.26     0.47     7.21     0  02:52        0.47
  YS02001901           JUNCTION     0.37     0.60     7.21     0  02:49        0.60
  YS02001904           JUNCTION     0.35     0.57     7.20     0  02:51        0.57
  YS02001907           JUNCTION     0.67     0.91     7.20     0  02:53        0.91
  YS02001910           JUNCTION     0.47     0.70     7.20     0  02:49        0.70
  YS02001915           JUNCTION     0.27     0.49     7.20     0  02:50        0.49
  YS02001918           JUNCTION     0.08     0.14     7.20     0  02:51        0.14
  YS02001619           JUNCTION     1.06     1.47     8.40     0  03:59        1.43
  YS02001629           JUNCTION     1.39     1.82     8.37     0  03:59        1.81
  YS02001641           JUNCTION     1.50     1.92     8.36     0  04:37        1.92
  YS02001644           JUNCTION     1.50     1.92     8.35     0  04:37        1.92
  YS02001652           JUNCTION     1.35     1.77     8.37     0  04:48        1.77
  YS02001655           JUNCTION     1.12     1.52     8.37     0  04:45        1.51
  YS02001920           JUNCTION     0.18     0.23     7.23     0  02:57        0.23
  YS02001923           JUNCTION     0.07     0.09     7.35     0  03:01        0.09
  YS02001926           JUNCTION     0.14     0.19     7.63     0  03:01        0.19
  YS02001929           JUNCTION     0.07     0.10     7.79     0  03:01        0.10
  YS02001658           JUNCTION     0.87     1.33     8.47     0  03:57        1.22
  YS02001661           JUNCTION     0.66     0.96     8.37     0  04:45        0.96
  YS02001664           JUNCTION     0.27     0.45     8.37     0  04:46        0.44
  YS02001622           JUNCTION     1.08     1.49     8.40     0  03:59        1.45
  YS02001633           JUNCTION     1.48     1.91     8.36     0  04:36        1.90
  YS02001649           JUNCTION     1.53     1.98     8.37     0  04:47        1.97
  YS02001757           JUNCTION     1.66     2.11     8.37     0  04:48        2.11
  YS02001895           JUNCTION     0.25     0.47     7.21     0  02:50        0.47
  YS02001625           JUNCTION     1.35     1.78     8.38     0  03:59        1.75
  YS02163301           JUNCTION     1.42     1.85     8.36     0  04:36        1.84
  YS02163601           JUNCTION     1.54     1.96     8.36     0  04:36        1.95
  YS02164001           JUNCTION     1.48     1.90     8.36     0  04:36        1.89
  YS02001647           JUNCTION     1.34     1.75     8.36     0  04:47        1.75
  YSB1154              JUNCTION     0.23     0.40     9.46     0  02:15        0.40
  YSB6556              JUNCTION     0.13     0.29     9.46     0  02:15        0.29
  YSB1174              JUNCTION     0.18     0.35     9.46     0  02:15        0.35
  YSB1171              JUNCTION     0.38     0.56     9.46     0  02:15        0.56
  YS02006553           JUNCTION     0.68     0.92     7.20     0  02:49        0.92
  YS02006561           JUNCTION     0.14     0.25     6.91     0  02:55        0.25
  YS02006556           JUNCTION     0.65     0.89     7.20     0  02:55        0.89
  YS02006558           JUNCTION     0.69     0.93     7.20     0  02:55        0.93
  YS02001783           JUNCTION     0.28     0.65     6.79     0  02:37        0.63
  YS02001784           JUNCTION     0.32     0.71     6.78     0  02:37        0.69
  YS02001786           JUNCTION     0.30     0.70     6.73     0  02:38        0.70
  YS02001788           JUNCTION     0.27     0.73     6.71     0  02:36        0.71
  YS02001790           JUNCTION     0.40     1.67     7.31     0  05:20        1.02
  YS02001791           JUNCTION     0.41     1.45     6.92     0  05:20        1.16
  YS02001793           JUNCTION     0.62     2.51     7.34     0  02:30        1.78
  WS02004139           JUNCTION     0.39     0.54     5.45     0  06:51        0.54
  WSC                  OUTFALL      0.20     0.29     0.96     0  06:15        0.29
  3                    OUTFALL      0.05     0.19     6.19     0  05:30        0.19
  4                    OUTFALL      0.00     0.08     7.08     0  05:51        0.08
  5                    OUTFALL      0.00     0.00     5.00     0  00:00        0.00
  JK-storage           STORAGE      2.93     5.80     6.60     0  02:36        5.80
  CC-storage           STORAGE      0.95     1.37     8.37     0  04:48        1.37
  XR-storage           STORAGE      7.67     7.72     5.72     0  00:44        7.72
  
  
  *******************
  Node Inflow Summary
  *******************
  
  -------------------------------------------------------------------------------------------------
                                  Maximum  Maximum                  Lateral       Total        Flow
                                  Lateral    Total  Time of Max      Inflow      Inflow     Balance
                                   Inflow   Inflow   Occurrence      Volume      Volume       Error
  Node                 Type           LPS      LPS  days hr:min    10^6 ltr    10^6 ltr     Percent
  -------------------------------------------------------------------------------------------------
  WS02001211           JUNCTION      7.35   190.43     0  06:50       0.207        1.89       0.694
  WS02001212           JUNCTION      0.00   186.11     0  06:51           0        1.88       0.142
  WS02001213           JUNCTION      0.00   185.05     0  06:52           0        1.88       0.606
  WS02003069           JUNCTION      0.32   528.30     0  06:13     0.00902        6.33       0.128
  WS02003072           JUNCTION      0.00   527.49     0  06:14           0        6.32       0.203
  WS02003073           JUNCTION      1.82   528.71     0  06:14      0.0514        6.36       0.206
  WS02003060           JUNCTION     16.53   528.47     0  06:12       0.466        6.34       0.123
  WS02003066           JUNCTION      0.00   425.95     0  02:45           0        4.03       0.046
  WS02003059           JUNCTION      0.00   186.92     0  06:52           0        1.88       1.056
  WS02003067           JUNCTION      0.00   425.90     0  02:44           0        4.03       0.123
  WS02004401           JUNCTION      0.00   436.06     0  02:40           0        4.15       0.274
  WS02004402           JUNCTION      0.00   434.60     0  02:40           0        4.14       0.276
  WS02004403           JUNCTION      0.00   433.80     0  02:40           0        4.13       0.267
  WS02004404           JUNCTION      0.16   433.38     0  02:40     0.00457        4.12       0.219
  WS02004406           JUNCTION      0.00   432.99     0  02:41           0         4.1       0.542
  WS02004409           JUNCTION      0.00   432.76     0  02:41           0        4.07       0.108
  WS02004410           JUNCTION      0.00   430.32     0  02:42           0        4.07       0.154
  WS02004411           JUNCTION      0.00   428.32     0  02:43           0        4.06       0.184
  WS02004412           JUNCTION      0.00   426.97     0  02:43           0        4.06       0.233
  WS02004413           JUNCTION      0.00   426.21     0  02:44           0        4.05       0.397
  WS02004405           JUNCTION      0.04   433.22     0  02:41     0.00107        4.11       0.329
  WS02006109           JUNCTION      1.23   442.73     0  02:36      0.0347        4.17       0.178
  WS02006110           JUNCTION      0.00   443.05     0  02:36           0        4.16       0.231
  WS02006111           JUNCTION      0.00   454.40     0  02:37           0        4.15       0.017
  WS02006112           JUNCTION     11.18   449.20     0  02:37      0.0301        4.18       0.434
  WS02006113           JUNCTION      0.00   442.71     0  02:37           0        4.15       0.052
  WS02006115           JUNCTION      0.00   443.86     0  02:37           0        4.16       0.201
  WS02006116           JUNCTION      0.00   438.45     0  02:39           0        4.16       0.170
  WS02006230           JUNCTION     10.28   390.58     0  05:53        0.29        3.16       0.129
  WS02006231           JUNCTION      0.00   381.61     0  05:52           0        2.87      -0.032
  WS02006232           JUNCTION      0.00   381.82     0  05:53           0        2.87       0.158
  WS02006234           JUNCTION      0.00   382.61     0  05:52           0        2.86      -0.069
  WS02006235           JUNCTION      0.00   383.21     0  05:52           0        2.95       0.097
  WS02006238           JUNCTION      0.00   334.72     0  06:31           0        1.62      -0.004
  WS02006240           JUNCTION      0.00   334.88     0  06:31           0        1.54       0.106
  WS02006242           JUNCTION      0.00   336.12     0  06:31           0         1.5       0.075
  WS02006243           JUNCTION      0.00   335.38     0  06:31           0        1.47      -0.806
  WS02006245           JUNCTION      0.00   335.52     0  06:30           0        1.47       0.340
  WS02006247           JUNCTION      0.00   337.30     0  06:30           0        1.47       0.014
  WS02006248           JUNCTION      0.00   339.56     0  06:30           0        1.47      -0.222
  WS02006249           JUNCTION      0.00   392.60     0  05:50           0         1.5       0.338
  WS02006239           JUNCTION      0.00   334.55     0  06:31           0        1.58      -0.277
  WS02006251           JUNCTION      0.08   400.03     0  05:50     0.00217        1.53      -0.045
  WS02006252           JUNCTION      0.00   399.93     0  05:50           0        1.33       0.020
  WS02006253           JUNCTION      1.70    49.97     0  02:16     0.00389       0.193       0.077
  WS02006256           JUNCTION      0.00   599.90     0  05:30           0        2.52       0.072
  WS02004138           JUNCTION      0.00   189.92     0  06:10           0        1.68       0.005
  WS02004407           JUNCTION      0.00   432.86     0  02:41           0        4.08       0.046
  WS02006228           JUNCTION      0.00   441.69     0  02:36           0        4.14       0.157
  WS02006229           JUNCTION      0.00   441.90     0  02:36           0        4.16       0.240
  WS02006280           JUNCTION      0.00   252.67     0  02:17           0        1.01       0.007
  WS02006284           JUNCTION      0.10   252.66     0  02:16      0.0027        1.01       0.106
  WS02006287           JUNCTION      0.00   252.55     0  02:16           0        1.01       0.072
  WSF200               JUNCTION      0.00   425.93     0  02:45           0        4.02       0.026
  HS02004901           JUNCTION     13.85    13.85     0  02:09      0.0362      0.0363       5.082
  HS02004881           JUNCTION      5.60    48.66     0  02:16      0.0158       0.167       0.064
  HS02004876           JUNCTION      8.92    43.39     0  02:16      0.0303       0.152       0.350
  HS02004870           JUNCTION      9.88    34.64     0  02:16      0.0299       0.122       0.088
  HS02004862           JUNCTION      8.10    25.41     0  02:17      0.0355      0.0919       0.184
  HS02004856           JUNCTION      7.33    17.37     0  02:16      0.0225      0.0578       2.552
  HS02004852           JUNCTION      0.00    10.50     0  02:16           0      0.0354       0.145
  HS02004848           JUNCTION     16.25    16.25     0  02:19      0.0714      0.0714       0.063
  HS02004842           JUNCTION      0.00     6.34     0  02:29           0      0.0491      36.015
  HS02004837           JUNCTION     22.20    27.47     0  02:16       0.231       0.267       0.303
  HS02004830           JUNCTION      0.15    27.60     0  02:16     0.00423       0.258       0.481
  HS02004824           JUNCTION     18.28    45.66     0  02:20      0.0935        0.35       0.154
  HS02004817           JUNCTION      0.60    46.25     0  02:20      0.0169       0.366       4.766
  HS02004807           JUNCTION     18.60    63.20     0  02:18       0.055       0.405       1.056
  HS02004802           JUNCTION      0.00    63.62     0  02:19           0         0.4       1.026
  HS02004799           JUNCTION     14.32   161.56     0  02:14      0.0445       0.531       0.430
  HS02004792           JUNCTION     63.92   147.52     0  02:14       0.193       0.487       0.085
  HS02004788           JUNCTION     21.09    85.81     0  02:14       0.109       0.295       0.132
  HS02004785           JUNCTION      0.15    65.08     0  02:14     0.00423       0.188       0.259
  HS02004777           JUNCTION      0.03    65.42     0  02:13    0.000846       0.188       2.824
  HS02004770           JUNCTION     54.16    66.68     0  02:11       0.155       0.189       1.663
  HS02004480           JUNCTION      0.00   190.55     0  02:15           0       0.622       0.119
  HS02004479           JUNCTION      0.00    29.57     0  02:16           0       0.103       0.717
  HS02004478           JUNCTION      0.00   252.53     0  02:16           0        1.01       0.062
  YS02001745           JUNCTION     93.38    93.38     0  02:59       0.983       0.983       1.163
  YS02001748           JUNCTION      0.04   143.03     0  03:21     0.00127       0.974       2.461
  YS02001751           JUNCTION      0.01   137.77     0  03:20     0.00031        0.95       2.565
  YS02001754           JUNCTION      0.26   115.64     0  02:42     0.00733       0.934       2.776
  YS02001762           JUNCTION      0.00   128.04     0  02:45           0        1.07       2.078
  YS02001765           JUNCTION      0.00   135.41     0  02:33           0        1.07       2.378
  YS02001767           JUNCTION      0.54   130.39     0  02:40      0.0151        1.09       3.444
  YS02001770           JUNCTION    119.65   132.52     0  02:37        1.14        1.15       2.917
  YS02001774           JUNCTION      0.00    50.47     0  02:13           0      0.0581      78.724
  YS02001779           JUNCTION      0.01    22.64     0  02:33    0.000141      0.0235     199.371
  YS02001882           JUNCTION      0.00     4.83     0  02:06           0     0.00612      40.241
  YS02001884           JUNCTION      0.00    13.80     0  02:05           0      0.0242      26.269
  YS02001759           JUNCTION    116.90   245.90     0  02:45        1.06        2.09       1.124
  YS02001887           JUNCTION    153.59   153.82     0  02:40        1.26        1.27       0.579
  YS02001890           JUNCTION      0.00   153.45     0  02:40           0        1.25       0.648
  YS02001898           JUNCTION      0.00   152.52     0  02:42           0        1.23       0.190
  YS02001901           JUNCTION      0.00   152.18     0  02:47           0        1.23       0.464
  YS02001904           JUNCTION      0.00   152.77     0  02:48           0        1.23       0.431
  YS02001907           JUNCTION      0.00   276.67     0  02:56           0        2.65       0.849
  YS02001910           JUNCTION      0.00   127.47     0  03:00           0        1.43       0.731
  YS02001915           JUNCTION     83.49   126.35     0  02:59       0.838        1.43       0.333
  YS02001918           JUNCTION      0.00    42.79     0  03:02           0       0.597       0.207
  YS02001619           JUNCTION     81.23    81.23     0  02:56       0.828       0.828       1.511
  YS02001629           JUNCTION      0.00   147.42     0  03:27           0       0.751       4.030
  YS02001641           JUNCTION      0.00   170.31     0  02:59           0        1.62       1.340
  YS02001644           JUNCTION     88.75   384.03     0  04:54       0.944        3.03       0.888
  YS02001652           JUNCTION      0.00   160.30     0  02:44           0       0.856       2.850
  YS02001655           JUNCTION      0.15   182.56     0  03:26     0.00434       0.881       2.847
  YS02001920           JUNCTION      2.87    42.66     0  03:01      0.0809       0.599       0.363
  YS02001923           JUNCTION      0.04    39.80     0  03:01     0.00106       0.518       0.064
  YS02001926           JUNCTION      0.05    39.83     0  03:01     0.00147        0.52       0.453
  YS02001929           JUNCTION     39.79    39.79     0  03:01       0.519       0.519       0.063
  YS02001658           JUNCTION      0.00   199.47     0  03:57           0       0.916       2.593
  YS02001661           JUNCTION      0.00   179.67     0  03:56           0       0.953       2.312
  YS02001664           JUNCTION    108.99   108.99     0  02:43       0.926       0.942       0.573
  YS02001622           JUNCTION      0.00   107.36     0  03:31           0       0.818       4.062
  YS02001633           JUNCTION     90.25   173.46     0  02:54       0.972        1.67       1.963
  YS02001649           JUNCTION      0.00   365.79     0  02:55           0        3.25       1.165
  YS02001757           JUNCTION      0.00   679.98     0  02:57           0        5.77       1.626
  YS02001895           JUNCTION      0.00   152.67     0  02:43           0        1.24       0.315
  YS02001625           JUNCTION      0.00   147.79     0  03:27           0       0.789       5.271
  YS02163301           JUNCTION      0.00    94.42     0  02:38           0       0.731       3.488
  YS02163601           JUNCTION      0.11   173.34     0  02:54      0.0031        1.64       1.886
  YS02164001           JUNCTION      0.00   172.18     0  02:54           0        1.62       1.307
  YS02001647           JUNCTION      0.00   267.56     0  04:54           0        2.54       1.155
  YSB1154              JUNCTION     15.87    15.87     0  02:14      0.0539      0.0553       2.682
  YSB6556              JUNCTION      0.00    15.85     0  02:16           0      0.0563       2.267
  YSB1174              JUNCTION     15.74    15.74     0  02:08      0.0393      0.0403       3.290
  YSB1171              JUNCTION      0.00    29.52     0  02:14           0       0.102       6.600
  YS02006553           JUNCTION      0.00   277.07     0  02:56           0        2.64       0.550
  YS02006561           JUNCTION      0.00   424.02     0  02:54           0        3.74       0.016
  YS02006556           JUNCTION      0.00   276.63     0  02:56           0        2.65       0.398
  YS02006558           JUNCTION    130.02   405.47     0  02:55        1.15        3.77       0.124
  YS02001783           JUNCTION      0.00   405.13     0  02:55           0        3.74       0.045
  YS02001784           JUNCTION      1.06   422.29     0  02:37      0.0299        3.77       0.071
  YS02001786           JUNCTION      0.06   408.97     0  02:38     0.00159        3.76       0.069
  YS02001788           JUNCTION      0.07   422.43     0  02:39       0.002        3.76       0.040
  YS02001790           JUNCTION      0.15   416.55     0  02:38     0.00437        3.77       0.018
  YS02001791           JUNCTION      0.00   438.90     0  03:49           0        3.77       0.018
  YS02001793           JUNCTION      0.00   462.10     0  03:49           0        3.77       0.004
  WS02004139           JUNCTION      0.32   189.63     0  06:50     0.00905        1.69       0.817
  WSC                  OUTFALL       0.00   527.52     0  06:15           0        6.35       0.000
  3                    OUTFALL       0.00   465.98     0  05:30           0        1.13       0.000
  4                    OUTFALL       0.00    58.29     0  05:51           0       0.032       0.000
  5                    OUTFALL       0.00     0.00     0  00:00           0           0       0.000 ltr
  JK-storage           STORAGE       0.00   609.64     0  02:30           0        3.92      -2.016
  CC-storage           STORAGE       0.00   679.01     0  02:56           0        5.27       1.248
  XR-storage           STORAGE     351.12   351.12     0  02:52        7.29        7.89       0.003
  
  
  **********************
  Node Surcharge Summary
  **********************
  
  Surcharging occurs when water rises above the top of the highest conduit.
  ---------------------------------------------------------------------
                                               Max. Height   Min. Depth
                                   Hours       Above Crown    Below Rim
  Node                 Type      Surcharged         Meters       Meters
  ---------------------------------------------------------------------
  WS02006109           JUNCTION        0.24          0.046        1.774
  WS02006232           JUNCTION        0.16          0.026        1.454
  WS02006238           JUNCTION        0.10          0.016        1.414
  WS02006242           JUNCTION        0.02          0.002        0.818
  WS02006252           JUNCTION        0.45          0.184        0.916
  WS02006228           JUNCTION        0.19          0.051        2.149
  YS02001748           JUNCTION        3.67          0.212        0.978
  YS02001751           JUNCTION        4.27          0.493        0.707
  YS02001754           JUNCTION        4.70          0.714        0.436
  YS02001762           JUNCTION        5.31          0.971        0.179
  YS02001765           JUNCTION        5.27          0.922        0.178
  YS02001767           JUNCTION        5.22          0.886        0.144
  YS02001770           JUNCTION        5.17          0.851        0.069
  YS02001774           JUNCTION        5.30          0.951        0.099
  YS02001779           JUNCTION        4.61          0.680        0.000
  YS02001759           JUNCTION        5.34          1.005        0.205
  YS02001619           JUNCTION        4.21          0.472        0.138
  YS02001629           JUNCTION        4.22          0.439        0.031
  YS02001641           JUNCTION        5.29          0.918        0.182
  YS02001644           JUNCTION        5.29          0.920        0.000
  YS02001652           JUNCTION        4.83          0.743        0.387
  YS02001655           JUNCTION        4.32          0.518        0.682
  YS02001658           JUNCTION        3.70          0.329        0.971
  YS02001622           JUNCTION        4.25          0.493        0.127
  YS02001633           JUNCTION        5.25          0.889        0.171
  YS02001649           JUNCTION        5.32          0.976        0.074
  YS02001757           JUNCTION        5.43          1.109        0.101
  YS02001625           JUNCTION        4.96          0.780        0.000
  YS02163301           JUNCTION        5.20          0.848        0.182
  YS02163601           JUNCTION        5.32          0.962        0.118
  YS02164001           JUNCTION        5.26          0.899        0.201
  YS02001647           JUNCTION        4.91          0.750        0.150
  YS02001790           JUNCTION        1.95          0.867        0.290
  YS02001791           JUNCTION        2.32          0.648        1.272
  YS02001793           JUNCTION        2.59          1.512        1.088
  
  
  *********************
  Node Flooding Summary
  *********************
  
  Flooding refers to all water that overflows a node, whether it ponds or not.
  --------------------------------------------------------------------------
                                                             Total   Maximum
                                 Maximum   Time of Max       Flood    Ponded
                        Hours       Rate    Occurrence      Volume     Depth
  Node                 Flooded       LPS   days hr:min    10^6 ltr    Meters
  --------------------------------------------------------------------------
  YS02001779              0.09      7.17      0  04:48       0.001     0.000
  YS02001644              1.62    383.97      0  04:54       0.944     0.000
  JK-storage              1.61    405.45      0  02:52       1.334     0.000
  XR-storage              7.10    350.52      0  03:00       5.284     0.000
  
  
  **********************
  Storage Volume Summary
  **********************
  
  --------------------------------------------------------------------------------------------------
                         Average     Avg  Evap Exfil       Maximum     Max    Time of Max    Maximum
                          Volume    Pcnt  Pcnt  Pcnt        Volume    Pcnt     Occurrence    Outflow
  Storage Unit           1000 m3    Full  Loss  Loss       1000 m3    Full    days hr:min        LPS
  --------------------------------------------------------------------------------------------------
  JK-storage               0.147      51     0     0         0.291     100       0  02:36     599.90
  CC-storage               2.637      17     0     0         3.830      24       0  04:48     399.93
  XR-storage               0.920      99     0     0         0.926     100       0  00:44     189.92
  
  
  ***********************
  Outfall Loading Summary
  ***********************
  
  -----------------------------------------------------------
                         Flow       Avg       Max       Total
                         Freq      Flow      Flow      Volume
  Outfall Node           Pcnt       LPS       LPS    10^6 ltr
  -----------------------------------------------------------
  WSC                  100.00    259.31    527.52       6.345
  3                     57.25    146.28    465.98       1.128
  4                      8.62     23.63     58.29       0.032
  5                      0.00      0.00      0.00       0.000
  -----------------------------------------------------------
  System                41.47    429.22    696.43       7.506
  
  
  ********************
  Link Flow Summary
  ********************
  
  -----------------------------------------------------------------------------
                                 Maximum  Time of Max   Maximum    Max/    Max/
                                  |Flow|   Occurrence   |Veloc|    Full    Full
  Link                 Type          LPS  days hr:min     m/sec    Flow   Depth
  -----------------------------------------------------------------------------
  WS02003066WSF200     CONDUIT    425.93     0  02:45      2.70    0.07    0.20
  WS02006287WS02006284 CONDUIT    252.57     0  02:16      1.74    0.12    0.24
  WS02006284WS02006280 CONDUIT    252.67     0  02:17      1.98    0.11    0.22
  WS02006280WS02006229 CONDUIT    252.68     0  02:17      3.18    0.05    0.16
  WS02006229WS02006228 CONDUIT    441.69     0  02:36      0.88    1.46    1.00
  WS02006256WS02006235 CONDUIT    150.28     0  03:50      2.14    1.59    1.00
  WS02006253WS02006251 CONDUIT     53.04     0  02:17      0.53    0.16    0.86
  WS02006252WS02006251 CONDUIT    399.95     0  05:50      3.18    1.47    1.00
  WS02006251WS02006249 CONDUIT    392.60     0  05:50      1.14    1.13    0.84
  WS02006249WS02006248 CONDUIT    339.56     0  06:30      1.10    1.86    0.79
  WS02006248WS02006247 CONDUIT    337.30     0  06:30      1.06    0.73    0.82
  WS02006247WS02006245 CONDUIT    335.52     0  06:30      1.01    2.66    0.85
  WS02006245WS02006243 CONDUIT    335.38     0  06:31      1.06    0.99    0.86
  WS02006243WS02006242 CONDUIT    336.12     0  06:31      0.95    0.72    0.94
  WS02006242WS02006240 CONDUIT    334.88     0  06:31      0.92    1.33    0.97
  WS02006240WS02006239 CONDUIT    334.55     0  06:31      0.97    1.05    0.95
  WS02006239WS02006238 CONDUIT    334.72     0  06:31      0.92    1.07    1.00
  WS02006238WS02006235 CONDUIT    333.79     0  06:31      0.91    0.75    1.00
  WS02006235WS02006234 CONDUIT    382.61     0  05:52      1.01    4.04    0.96
  WS02006234WS02006232 CONDUIT    381.82     0  05:53      1.00    0.77    0.98
  WS02006232WS02006231 CONDUIT    381.61     0  05:52      1.05    0.80    0.90
  WS02006231WS02006230 CONDUIT    380.30     0  05:53      1.32    5.77    0.74
  WS02006230WS02006229 CONDUIT    390.00     0  05:54      1.01    8.68    1.00
  WS02006228WS02006109 CONDUIT    441.50     0  02:36      0.88    1.93    1.00
  WS02006116WS02004401 CONDUIT    436.06     0  02:40      0.76    0.60    0.76
  WS02006115WS02006116 CONDUIT    438.45     0  02:39      0.94    0.56    0.67
  WS02006113WS02006111 CONDUIT    454.40     0  02:37      2.30    0.54    0.42
  WS02006112WS02006115 CONDUIT    443.86     0  02:37      0.67    0.26    0.80
  WS02006111WS02006112 CONDUIT    444.00     0  02:37      1.27    0.21    0.66
  WS02006110WS02006113 CONDUIT    442.71     0  02:37      1.09    0.40    0.75
  WS02006109WS02006110 CONDUIT    443.05     0  02:36      0.89    0.85    0.96
  WS02004411WS02004412 CONDUIT    426.97     0  02:43      0.83    0.61    0.62
  WS02004401WS02004402 CONDUIT    434.60     0  02:40      0.78    0.52    0.78
  WS02004413WS02003067 CONDUIT    425.90     0  02:44      0.98    0.18    0.54
  WS02004412WS02004413 CONDUIT    426.21     0  02:44      0.71    0.29    0.71
  WS02004410WS02004411 CONDUIT    428.32     0  02:43      0.86    0.59    0.61
  WS02004409WS02004410 CONDUIT    430.32     0  02:42      0.90    0.56    0.59
  WS02004407WS02004409 CONDUIT    432.76     0  02:41      1.38    0.15    0.42
  WS02004406WS02004407 CONDUIT    432.86     0  02:41      0.92    0.19    0.58
  WS02004405WS02004406 CONDUIT    432.99     0  02:41      0.71    0.85    0.89
  WS02004404WS02004405 CONDUIT    433.19     0  02:41      0.91    4.24    0.89
  WS02004403WS02004404 CONDUIT    433.22     0  02:40      0.84    0.31    0.86
  WS02004402WS02004403 CONDUIT    433.80     0  02:40      0.86    0.62    0.81
  WS02004139WS02001211 CONDUIT    183.09     0  06:50      0.53    0.23    0.43
  WS02004138WS02004139 CONDUIT    189.31     0  06:50      2.39    0.04    0.31
  WS02003067WS02003066 CONDUIT    425.95     0  02:45      1.06    0.14    0.39
  WS02001213WS02003059 CONDUIT    186.92     0  06:52      0.45    0.31    0.60
  WS02001212WS02001213 CONDUIT    185.05     0  06:52      1.00    0.29    0.29
  WS02001211WS02001212 CONDUIT    186.11     0  06:51      0.52    0.14    0.46
  WS02003072WS02003073 CONDUIT    526.89     0  06:14      1.41    1.14    0.37
  WS02003069WS02003072 CONDUIT    527.49     0  06:14      1.35    0.25    0.38
  WS02003060WS02003069 CONDUIT    527.98     0  06:13      1.62    0.21    0.33
  WS02003059WS02003060 CONDUIT    190.80     0  06:53      0.63    0.12    0.51
  HS02004901HS02004770 CONDUIT     12.85     0  02:13      0.05    0.05    0.35
  HS02004876HS02004881 CONDUIT     43.53     0  02:16      0.66    0.46    0.09
  HS02004870HS02004876 CONDUIT     34.62     0  02:17      0.46    0.02    0.11
  HS02004842HS02004848 CONDUIT      6.34     0  02:29      0.03    0.00    0.28
  HS02004837HS02004842 CONDUIT      6.57     0  02:29      0.42    0.00    0.30
  HS02004830HS02004837 CONDUIT     27.45     0  02:16      0.47    0.03    0.08
  HS02004824HS02004830 CONDUIT     27.59     0  02:17      0.51    0.04    0.08
  HS02004817HS02004824 CONDUIT     45.65     0  02:20      0.17    0.02    0.42
  HS02004770HS02004777 CONDUIT     65.39     0  02:13      0.26    0.12    0.36
  HS02004799HS02004480 CONDUIT    161.28     0  02:14      0.66    0.20    0.35
  HS02004792HS02004799 CONDUIT    147.42     0  02:14      0.76    0.09    0.28
  HS02004788HS02004792 CONDUIT     85.74     0  02:15      0.90    0.06    0.14
  HS02004785HS02004788 CONDUIT     64.99     0  02:15      0.57    0.49    0.16
  HS02004777HS02004785 CONDUIT     64.93     0  02:14      0.31    0.08    0.29
  HS02004480HS02004478 CONDUIT    190.47     0  02:15      1.05    0.80    0.26
  HS02004479HS02004480 CONDUIT     29.84     0  02:17      0.16    0.03    0.34
  HS02004862HS02004870 CONDUIT     25.36     0  02:17      0.51    0.03    0.07
  HS02004848HS02004852 CONDUIT     10.50     0  02:16      0.34    0.01    0.04
  HS02004856HS02004862 CONDUIT     17.33     0  02:17      0.38    0.02    0.07
  HS02004852HS02004856 CONDUIT     10.46     0  02:18      0.15    0.01    0.10
  HS02004802HS02004478 CONDUIT     64.12     0  02:20      0.33    0.06    0.28
  HS02004478WS02006287 CONDUIT    252.55     0  02:16      1.43    0.07    0.20
  HS02004817HS02004807 CONDUIT     46.98     0  02:21      0.13    0.03    0.54
  HS02004807HS02004802 CONDUIT     63.62     0  02:19      0.28    0.12    0.33
  YS02001759YS02001757 CONDUIT    246.50     0  02:45      0.31    0.18    1.00
  YS02001762YS02001759 CONDUIT    129.02     0  02:45      0.18    0.15    1.00
  YS02001765YS02001762 CONDUIT    128.04     0  02:45      0.23    0.12    1.00
  YS02001770YS02001767 CONDUIT    129.86     0  02:40      0.33    0.51    1.00
  YS02001774YS02001770 CONDUIT     50.47     0  02:13      0.14    0.03    1.00
  YS02001779YS02001774 CONDUIT     22.64     0  02:33      0.09    0.01    1.00
  YS02001649YS02001757 CONDUIT    368.11     0  02:55      0.47    0.22    1.00
  YS02001767YS02001765 CONDUIT    135.41     0  02:33      0.26    0.17    1.00
  YS02006561YS02001783 CONDUIT    405.13     0  02:55      1.87    0.21    0.56
  YS02001783YS02001784 CONDUIT    421.23     0  02:37      1.31    0.58    0.83
  YS02001784YS02001785 CONDUIT    408.91     0  02:38      1.40    0.95    0.87
  YS02001788YS02001790 CONDUIT    416.39     0  02:38      1.94    0.31    0.96
  YS02001790YS02001791 CONDUIT    438.90     0  03:49      2.29    0.48    1.00
  YS02001791YS02001793 CONDUIT    462.10     0  03:49      4.49    0.20    1.00
  YS02001910YS02001907 CONDUIT    128.24     0  03:00      0.50    0.07    0.80
  YS02001786YS02001788 CONDUIT    422.36     0  02:39      1.87    0.81    0.88
  YS02001915YS02001910 CONDUIT    127.47     0  03:00      0.44    0.06    0.59
  YS02001918YS02001915 CONDUIT     44.14     0  03:04      0.44    0.02    0.31
  YS02001923YS02001920 CONDUIT     39.79     0  03:01      0.49    0.02    0.16
  YS02001926YS02001923 CONDUIT     39.76     0  03:01      0.54    0.06    0.15
  YS02001929YS02001926 CONDUIT     39.78     0  03:01      0.58    0.02    0.14
  YS02001920YS02001918 CONDUIT     42.79     0  03:02      0.50    0.04    0.18
  YS02001629YS02163301 CONDUIT     94.42     0  02:38      0.12    0.12    1.00
  YS02001619YS02001622 CONDUIT    107.36     0  03:31      0.70    0.16    1.00
  YS02001622YS02001625 CONDUIT    147.79     0  03:27      0.28    0.08    1.00
  YS02001625YS02001629 CONDUIT    147.42     0  03:27      0.27    0.07    1.00
  YS02163301YS02001633 CONDUIT     85.80     0  02:43      0.11    0.08    1.00
  YS02163601YS02164001 CONDUIT    172.18     0  02:54      0.22    0.15    1.00
  YS02164001YS02001641 CONDUIT    170.31     0  02:59      0.22    0.23    1.00
  YS02001641YS02001644 CONDUIT    172.40     0  02:56      0.22    0.56    1.00
  YS02001647YS02001649 CONDUIT    281.99     0  02:44      0.36    0.15    1.00
  YS02006553YS02006556 CONDUIT    276.63     0  02:56      0.38    0.24    0.88
  YS02006556YS02006558 CONDUIT    277.72     0  02:55      0.37    0.22    0.91
  YSB6556YSB1171       CONDUIT     16.15     0  02:17      0.07    0.02    0.61
  YS02001907YS02006553 CONDUIT    277.07     0  02:56      0.31    0.33    0.99
  YS02006558YS02006561 CONDUIT    424.02     0  02:54      2.58    0.94    0.56
  YS02001633YS02163601 CONDUIT    173.23     0  02:54      0.22    0.18    1.00
  YS02001644YS02001647 CONDUIT    267.83     0  04:54      0.34    0.16    1.00
  YS02001745YS02001748 CONDUIT    142.98     0  03:21      1.48    0.06    0.93
  YS02001748YS02001751 CONDUIT    137.76     0  03:20      1.15    0.07    1.00
  YS02001751YS02001754 CONDUIT    115.38     0  02:42      1.01    0.06    1.00
  YS02001754YS02001757 CONDUIT    110.73     0  03:24      0.33    0.04    1.00
  YS02001882YS02001884 CONDUIT      4.83     0  02:06      0.06    0.01    0.53
  YS02001884YS02001887 CONDUIT     13.80     0  02:05      0.06    0.02    0.62
  YS02001890YS02001895 CONDUIT    152.67     0  02:43      0.32    0.07    0.59
  YS02001895YS02001898 CONDUIT    152.52     0  02:42      0.50    0.26    0.45
  YS02001898YS02001901 CONDUIT    152.18     0  02:47      0.36    0.10    0.53
  YS02001901YS02001904 CONDUIT    152.77     0  02:48      0.32    0.24    0.58
  YS02001904YS02001907 CONDUIT    153.02     0  02:46      0.25    0.05    0.74
  YS02001887YS02001890 CONDUIT    153.45     0  02:40      0.27    0.26    0.68
  YS02001652YS02001649 CONDUIT    146.81     0  02:45      0.35    0.07    1.00
  YS02001655YS02001652 CONDUIT    160.30     0  02:44      1.08    0.08    1.00
  YS02001658YS02001655 CONDUIT    182.41     0  03:26      1.33    0.08    1.00
  YS02001661YS02001658 CONDUIT    199.47     0  03:57      1.54    0.08    0.95
  YS02001664YS02001661 CONDUIT    145.60     0  04:04      1.24    0.05    0.70
  YSB1154YSB6556       CONDUIT     15.85     0  02:16      0.19    0.03    0.50
  YSB1174YSB1171       CONDUIT     14.62     0  02:10      0.06    0.02    0.61
  YSB1171HS02004479    CONDUIT     29.57     0  02:16      0.54    0.02    0.48
  HS02004881HS02006253 CONDUIT     48.66     0  02:16      1.81    0.01    0.20
  YS02001793JiankangQianchi CONDUIT    609.64     0  02:30      9.68    0.05    1.00
  YS02001757CaochengTiaoxuchi CONDUIT    679.01     0  02:56      1.36    0.30    1.00
  WSF200WS02003060     CONDUIT    425.65     0  02:45      1.99    0.09    0.25
  1                    CONDUIT    527.52     0  06:15      2.78    0.18    0.29
  2                    CONDUIT     58.29     0  05:51      4.16    0.14    0.25
  3                    CONDUIT    465.98     0  05:30      9.67    0.74    0.65
  4                    CONDUIT      0.00     0  00:00      0.00    0.00    0.00
  CC-Pump-1            PUMP       200.00     0  05:20              1.00
  CC-Pump-2            PUMP       200.00     0  05:40              1.00
  JK-Pump-1            PUMP       300.00     0  05:10              1.00
  JK-Pump-2            PUMP       300.00     0  03:50              1.00
  XR-Pump-1            PUMP        95.00     0  00:00              1.00
  XR-Pump-2            PUMP        95.00     0  05:20              1.00
  XR-Pump-3            PUMP        94.97     0  04:00              1.00
  XR-Pump-4            PUMP        95.00     0  00:50              1.00
  
  
  ***************************
  Flow Classification Summary
  ***************************
  
  -------------------------------------------------------------------------------------
                      Adjusted    ---------- Fraction of Time in Flow Class ---------- 
                       /Actual         Up    Down  Sub   Sup   Up    Down  Norm  Inlet 
  Conduit               Length    Dry  Dry   Dry   Crit  Crit  Crit  Crit  Ltd   Ctrl  
  -------------------------------------------------------------------------------------
  WS02003066WSF200        1.00   0.08  0.00  0.00  0.00  0.92  0.00  0.00  0.83  0.00
  WS02006287WS02006284    1.00   0.06  0.02  0.00  0.71  0.21  0.00  0.00  0.77  0.00
  WS02006284WS02006280    1.00   0.07  0.00  0.00  0.00  0.00  0.00  0.93  0.00  0.00
  WS02006280WS02006229    1.00   0.07  0.00  0.00  0.00  0.00  0.00  0.93  0.00  0.00
  WS02006229WS02006228    1.00   0.00  0.00  0.00  1.00  0.00  0.00  0.00  0.00  0.00
  WS02006256WS02006235    1.00   0.02  0.00  0.00  0.98  0.00  0.00  0.00  0.00  0.00
  WS02006253WS02006251    1.00   0.01  0.05  0.00  0.93  0.00  0.01  0.00  0.00  0.00
  WS02006252WS02006251    1.00   0.12  0.01  0.00  0.00  0.00  0.87  0.00  0.00  0.00
  WS02006251WS02006249    1.00   0.00  0.00  0.00  1.00  0.00  0.00  0.00  0.62  0.00
  WS02006249WS02006248    1.00   0.00  0.01  0.00  0.56  0.00  0.44  0.00  0.00  0.00
  WS02006248WS02006247    1.00   0.01  0.00  0.00  0.98  0.00  0.00  0.02  0.55  0.00
  WS02006247WS02006245    1.00   0.01  0.00  0.00  0.95  0.00  0.00  0.04  0.00  0.00
  WS02006245WS02006243    1.00   0.01  0.00  0.00  0.90  0.00  0.00  0.09  0.05  0.00
  WS02006243WS02006242    1.00   0.01  0.00  0.00  0.98  0.00  0.00  0.01  0.45  0.00
  WS02006242WS02006240    1.00   0.01  0.01  0.00  0.98  0.00  0.00  0.00  0.00  0.00
  WS02006240WS02006239    1.00   0.02  0.00  0.00  0.90  0.00  0.00  0.08  0.04  0.00
  WS02006239WS02006238    1.00   0.02  0.00  0.00  0.98  0.00  0.00  0.00  0.06  0.00
  WS02006238WS02006235    1.00   0.02  0.00  0.00  0.98  0.00  0.00  0.00  0.00  0.00
  WS02006235WS02006234    1.00   0.02  0.00  0.00  0.94  0.00  0.05  0.00  0.00  0.00
  WS02006234WS02006232    1.00   0.02  0.00  0.00  0.98  0.00  0.00  0.00  0.06  0.00
  WS02006232WS02006231    1.00   0.02  0.00  0.00  0.98  0.00  0.00  0.00  0.00  0.00
  WS02006231WS02006230    1.00   0.02  0.00  0.00  0.24  0.00  0.74  0.00  0.00  0.00
  WS02006230WS02006229    1.00   0.00  0.00  0.00  0.99  0.00  0.00  0.01  0.01  0.00
  WS02006228WS02006109    1.00   0.00  0.00  0.00  1.00  0.00  0.00  0.00  0.01  0.00
  WS02006116WS02004401    1.00   0.04  0.00  0.00  0.96  0.00  0.00  0.00  0.00  0.00
  WS02006115WS02006116    1.00   0.04  0.00  0.00  0.94  0.00  0.00  0.01  0.00  0.00
  WS02006113WS02006111    1.00   0.02  0.00  0.00  0.01  0.97  0.00  0.00  0.20  0.00
  WS02006112WS02006115    1.00   0.02  0.02  0.00  0.95  0.00  0.01  0.00  0.00  0.00
  WS02006111WS02006112    1.00   0.02  0.00  0.00  0.96  0.01  0.00  0.01  0.92  0.00
  WS02006110WS02006113    1.00   0.00  0.01  0.00  0.98  0.00  0.00  0.00  0.00  0.00
  WS02006109WS02006110    1.00   0.00  0.00  0.00  0.99  0.00  0.00  0.00  0.00  0.00
  WS02004411WS02004412    1.00   0.06  0.00  0.00  0.94  0.00  0.00  0.00  0.00  0.00
  WS02004401WS02004402    1.00   0.05  0.00  0.00  0.95  0.00  0.00  0.00  0.00  0.00
  WS02004413WS02003067    1.00   0.06  0.01  0.00  0.00  0.00  0.93  0.00  0.00  0.00
  WS02004412WS02004413    1.00   0.06  0.00  0.00  0.94  0.00  0.00  0.00  0.01  0.00
  WS02004410WS02004411    1.00   0.06  0.00  0.00  0.94  0.00  0.00  0.00  0.00  0.00
  WS02004409WS02004410    1.00   0.06  0.00  0.00  0.94  0.00  0.00  0.00  0.01  0.00
  WS02004407WS02004409    1.00   0.06  0.00  0.00  0.94  0.00  0.00  0.00  0.88  0.00
  WS02004406WS02004407    1.00   0.00  0.06  0.00  0.94  0.00  0.00  0.00  0.00  0.00
  WS02004405WS02004406    1.00   0.00  0.00  0.00  1.00  0.00  0.00  0.00  0.04  0.00
  WS02004404WS02004405    1.00   0.00  0.00  0.00  1.00  0.00  0.00  0.00  0.00  0.00
  WS02004403WS02004404    1.00   0.00  0.05  0.00  0.95  0.00  0.00  0.00  0.00  0.00
  WS02004402WS02004403    1.00   0.05  0.00  0.00  0.95  0.00  0.00  0.00  0.00  0.00
  WS02004139WS02001211    1.00   0.00  0.00  0.00  1.00  0.00  0.00  0.00  0.00  0.00
  WS02004138WS02004139    1.00   0.00  0.00  0.00  1.00  0.00  0.00  0.00  1.00  0.00
  WS02003067WS02003066    1.00   0.07  0.00  0.00  0.93  0.00  0.00  0.00  0.00  0.00
  WS02001213WS02003059    1.00   0.00  0.00  0.00  1.00  0.00  0.00  0.00  0.00  0.00
  WS02001212WS02001213    1.00   0.00  0.00  0.00  0.40  0.00  0.60  0.00  0.00  0.00
  WS02001211WS02001212    1.00   0.00  0.00  0.00  1.00  0.00  0.00  0.00  0.00  0.00
  WS02003072WS02003073    1.00   0.00  0.00  0.00  0.00  0.00  0.00  1.00  0.00  0.00
  WS02003069WS02003072    1.00   0.00  0.00  0.00  1.00  0.00  0.00  0.00  0.83  0.00
  WS02003060WS02003069    1.00   0.00  0.00  0.00  1.00  0.00  0.00  0.00  0.50  0.00
  WS02003059WS02003060    1.00   0.00  0.00  0.00  1.00  0.00  0.00  0.00  0.02  0.00
  HS02004901HS02004770    1.00   0.07  0.00  0.00  0.93  0.00  0.00  0.00  0.02  0.00
  HS02004876HS02004881    1.00   0.01  0.00  0.00  0.99  0.00  0.00  0.00  0.00  0.00
  HS02004870HS02004876    1.00   0.00  0.00  0.00  1.00  0.00  0.00  0.00  0.95  0.00
  HS02004842HS02004848    1.00   0.00  0.07  0.00  0.93  0.00  0.00  0.00  0.68  0.00
  HS02004837HS02004842    1.00   0.00  0.00  0.00  1.00  0.00  0.00  0.00  0.11  0.00
  HS02004830HS02004837    1.00   0.00  0.00  0.00  1.00  0.00  0.00  0.00  0.99  0.00
  HS02004824HS02004830    1.00   0.00  0.00  0.00  1.00  0.00  0.00  0.00  0.00  0.00
  HS02004817HS02004824    1.00   0.00  0.00  0.00  1.00  0.00  0.00  0.00  1.00  0.00
  HS02004770HS02004777    1.00   0.00  0.07  0.00  0.93  0.00  0.00  0.00  0.07  0.00
  HS02004799HS02004480    1.00   0.00  0.01  0.00  0.91  0.00  0.08  0.00  0.00  0.00
  HS02004792HS02004799    1.00   0.00  0.00  0.00  1.00  0.00  0.00  0.00  0.98  0.00
  HS02004788HS02004792    1.00   0.00  0.00  0.00  1.00  0.00  0.00  0.00  0.98  0.00
  HS02004785HS02004788    1.00   0.00  0.00  0.00  1.00  0.00  0.00  0.00  0.00  0.00
  HS02004777HS02004785    1.00   0.00  0.00  0.00  1.00  0.00  0.00  0.00  0.20  0.00
  HS02004480HS02004478    1.00   0.07  0.00  0.00  0.75  0.00  0.00  0.18  0.00  0.00
  HS02004479HS02004480    1.00   0.01  0.00  0.00  0.99  0.00  0.00  0.00  0.16  0.00
  HS02004862HS02004870    1.00   0.00  0.00  0.00  1.00  0.00  0.00  0.00  0.06  0.00
  HS02004848HS02004852    1.00   0.07  0.00  0.00  0.93  0.00  0.00  0.00  0.71  0.00
  HS02004856HS02004862    1.00   0.00  0.10  0.00  0.90  0.00  0.00  0.00  0.74  0.00
  HS02004852HS02004856    1.00   0.07  0.01  0.00  0.92  0.00  0.00  0.00  0.83  0.00
  HS02004802HS02004478    1.00   0.07  0.01  0.00  0.92  0.00  0.00  0.00  0.01  0.00
  HS02004478WS02006287    1.00   0.08  0.00  0.00  0.81  0.11  0.00  0.00  0.75  0.00
  HS02004817HS02004807    1.00   0.00  0.07  0.00  0.93  0.00  0.00  0.00  0.00  0.00
  HS02004807HS02004802    1.00   0.07  0.00  0.00  0.93  0.00  0.00  0.00  0.01  0.00
  YS02001759YS02001757    1.00   0.00  0.00  0.00  1.00  0.00  0.00  0.00  0.17  0.00
  YS02001762YS02001759    1.00   0.00  0.00  0.00  1.00  0.00  0.00  0.00  0.04  0.00
  YS02001765YS02001762    1.00   0.00  0.00  0.00  1.00  0.00  0.00  0.00  0.22  0.00
  YS02001770YS02001767    1.00   0.00  0.00  0.00  1.00  0.00  0.00  0.00  0.00  0.00
  YS02001774YS02001770    1.00   0.00  0.08  0.00  0.92  0.00  0.00  0.00  0.06  0.00
  YS02001779YS02001774    1.00   0.00  0.00  0.00  1.00  0.00  0.00  0.00  0.26  0.00
  YS02001649YS02001757    1.00   0.00  0.00  0.00  1.00  0.00  0.00  0.00  0.19  0.00
  YS02001767YS02001765    1.00   0.00  0.00  0.00  1.00  0.00  0.00  0.00  0.01  0.00
  YS02006561YS02001783    1.00   0.10  0.00  0.00  0.24  0.66  0.00  0.00  0.72  0.00
  YS02001783YS02001784    1.00   0.00  0.10  0.00  0.90  0.00  0.00  0.00  0.00  0.00
  YS02001784YS02001785    1.00   0.00  0.00  0.00  1.00  0.00  0.00  0.00  0.25  0.00
  YS02001788YS02001790    1.00   0.00  0.00  0.00  0.44  0.56  0.00  0.00  0.58  0.00
  YS02001790YS02001791    1.00   0.00  0.00  0.00  0.34  0.66  0.00  0.00  0.28  0.00
  YS02001791YS02001793    1.00   0.00  0.00  0.00  0.38  0.62  0.00  0.00  0.03  0.00
  YS02001910YS02001907    1.00   0.00  0.00  0.00  0.99  0.00  0.00  0.01  0.13  0.00
  YS02001786YS02001788    1.00   0.00  0.00  0.00  0.42  0.58  0.00  0.00  0.00  0.00
  YS02001915YS02001910    1.00   0.00  0.00  0.00  1.00  0.00  0.00  0.00  0.24  0.00
  YS02001918YS02001915    1.00   0.00  0.00  0.00  0.99  0.00  0.00  0.00  0.72  0.00
  YS02001923YS02001920    1.00   0.00  0.00  0.00  1.00  0.00  0.00  0.00  1.00  0.00
  YS02001926YS02001923    1.00   0.00  0.02  0.00  0.00  0.00  0.98  0.00  0.00  0.00
  YS02001929YS02001926    1.00   0.00  0.07  0.00  0.93  0.00  0.00  0.00  0.87  0.00
  YS02001920YS02001918    1.00   0.00  0.00  0.00  1.00  0.00  0.00  0.00  0.00  0.00
  YS02001629YS02163301    1.00   0.09  0.01  0.00  0.90  0.00  0.00  0.00  0.00  0.00
  YS02001619YS02001622    1.00   0.07  0.00  0.00  0.93  0.00  0.00  0.00  0.00  0.00
  YS02001622YS02001625    1.00   0.07  0.00  0.00  0.93  0.00  0.00  0.00  0.12  0.00
  YS02001625YS02001629    1.00   0.07  0.04  0.00  0.88  0.00  0.02  0.00  0.00  0.00
  YS02163301YS02001633    1.00   0.00  0.09  0.00  0.91  0.00  0.00  0.00  0.00  0.00
  YS02163601YS02164001    1.00   0.00  0.03  0.00  0.97  0.00  0.00  0.00  0.00  0.00
  YS02164001YS02001641    1.00   0.00  0.03  0.00  0.97  0.00  0.00  0.00  0.07  0.00
  YS02001641YS02001644    1.00   0.00  0.00  0.00  1.00  0.00  0.00  0.00  0.00  0.00
  YS02001647YS02001649    1.00   0.00  0.10  0.00  0.90  0.00  0.00  0.00  0.01  0.00
  YS02006553YS02006556    1.00   0.00  0.00  0.00  1.00  0.00  0.00  0.00  0.03  0.00
  YS02006556YS02006558    1.00   0.00  0.00  0.00  1.00  0.00  0.00  0.00  0.00  0.00
  YSB6556YSB1171          1.00   0.01  0.05  0.00  0.94  0.00  0.00  0.00  0.00  0.00
  YS02001907YS02006553    1.00   0.00  0.01  0.00  0.99  0.00  0.00  0.00  0.00  0.00
  YS02006558YS02006561    1.00   0.10  0.00  0.00  0.00  0.90  0.00  0.00  0.68  0.00
  YS02001633YS02163601    1.00   0.00  0.00  0.00  1.00  0.00  0.00  0.00  0.20  0.00
  YS02001644YS02001647    1.00   0.00  0.10  0.00  0.90  0.00  0.00  0.00  0.00  0.00
  YS02001745YS02001748    1.00   0.00  0.00  0.00  0.84  0.02  0.00  0.14  0.09  0.00
  YS02001748YS02001751    1.00   0.00  0.00  0.00  0.97  0.03  0.00  0.00  0.23  0.00
  YS02001751YS02001754    1.00   0.00  0.00  0.00  0.89  0.00  0.00  0.11  0.01  0.00
  YS02001754YS02001757    1.00   0.00  0.00  0.00  1.00  0.00  0.00  0.00  0.26  0.00
  YS02001882YS02001884    1.00   0.09  0.01  0.00  0.91  0.00  0.00  0.00  0.00  0.00
  YS02001884YS02001887    1.00   0.02  0.04  0.00  0.94  0.00  0.00  0.00  0.00  0.00
  YS02001890YS02001895    1.00   0.00  0.09  0.00  0.90  0.00  0.00  0.00  0.00  0.00
  YS02001895YS02001898    1.00   0.10  0.00  0.00  0.89  0.00  0.01  0.00  0.00  0.00
  YS02001898YS02001901    1.00   0.09  0.01  0.00  0.90  0.00  0.00  0.00  0.02  0.00
  YS02001901YS02001904    1.00   0.09  0.00  0.00  0.91  0.00  0.00  0.00  0.00  0.00
  YS02001904YS02001907    1.00   0.00  0.09  0.00  0.91  0.00  0.00  0.00  0.00  0.00
  YS02001887YS02001890    1.00   0.00  0.00  0.00  0.99  0.00  0.01  0.00  0.00  0.00
  YS02001652YS02001649    1.00   0.00  0.00  0.00  1.00  0.00  0.00  0.00  0.25  0.00
  YS02001655YS02001652    1.00   0.00  0.00  0.00  0.89  0.00  0.00  0.11  0.02  0.00
  YS02001658YS02001655    1.00   0.00  0.08  0.00  0.88  0.04  0.00  0.00  0.09  0.00
  YS02001661YS02001658    1.00   0.08  0.00  0.00  0.84  0.08  0.00  0.00  0.10  0.00
  YS02001664YS02001661    1.00   0.07  0.00  0.00  0.80  0.13  0.00  0.00  0.35  0.00
  YSB1154YSB6556          1.00   0.06  0.00  0.00  0.94  0.00  0.00  0.00  0.02  0.00
  YSB1174YSB1171          1.00   0.01  0.04  0.00  0.95  0.00  0.00  0.00  0.00  0.00
  YSB1171HS02004479       1.00   0.01  0.00  0.00  0.98  0.00  0.00  0.00  0.13  0.00
  HS02004881HS02006253    1.00   0.02  0.00  0.00  0.29  0.03  0.00  0.67  0.16  0.00
  YS02001793JiankangQianchi    1.00   0.00  0.00  0.00  0.76  0.24  0.00  0.00  0.39  0.00
  YS02001757CaochengTiaoxuchi    1.00   0.00  0.12  0.00  0.88  0.00  0.00  0.00  0.00  0.00
  WSF200WS02003060        1.00   0.00  0.08  0.00  0.31  0.61  0.00  0.00  0.47  0.00
  1                       1.00   0.00  0.00  0.00  0.00  1.00  0.00  0.00  0.25  0.00
  2                       1.00   0.91  0.00  0.00  0.00  0.09  0.00  0.00  0.02  0.00
  3                       1.00   0.43  0.00  0.00  0.00  0.57  0.00  0.00  0.02  0.00
  4                       1.00   1.00  0.00  0.00  0.00  0.00  0.00  0.00  0.00  0.00
  
  
  *************************
  Conduit Surcharge Summary
  *************************
  
  ----------------------------------------------------------------------------
                                                           Hours        Hours 
                         --------- Hours Full --------   Above Full   Capacity
  Conduit                Both Ends  Upstream  Dnstream   Normal Flow   Limited
  ----------------------------------------------------------------------------
  WS02006229WS02006228        0.19      0.27      0.19      1.05         0.19
  WS02006256WS02006235        3.63      3.63      6.32      2.42         0.01
  WS02006252WS02006251        0.16      0.16      0.45      0.37         0.01
  WS02006251WS02006249        0.01      0.01      0.01      0.14         0.01
  WS02006249WS02006248        0.01      0.01      0.01      0.80         0.01
  WS02006247WS02006245        0.01      0.01      0.01      1.38         0.01
  WS02006243WS02006242        0.01      0.01      0.02      0.01         0.01
  WS02006242WS02006240        0.01      0.01      0.12      0.43         0.01
  WS02006240WS02006239        0.01      0.01      0.01      0.07         0.01
  WS02006239WS02006238        0.08      0.08      0.10      0.08         0.01
  WS02006238WS02006235        0.07      0.07      0.16      0.01         0.01
  WS02006235WS02006234        0.01      0.01      0.01      3.53         0.01
  WS02006234WS02006232        0.01      0.01      0.16      0.01         0.01
  WS02006232WS02006231        0.01      0.01      0.16      0.01         0.01
  WS02006231WS02006230        0.01      0.01      0.01      3.97         0.01
  WS02006230WS02006229        0.50      0.78      0.50      4.58         0.50
  WS02006228WS02006109        0.23      0.39      0.23      1.97         0.23
  WS02006111WS02006112        0.01      0.01      1.13      0.01         0.01
  WS02006110WS02006113        0.01      0.01      0.33      0.01         0.01
  WS02006109WS02006110        0.01      0.01      0.39      0.01         0.01
  WS02004404WS02004405        0.01      0.01      0.01      4.46         0.01
  WS02003072WS02003073        0.01      0.01      0.01      0.31         0.01
  YS02001759YS02001757        5.34      5.34      5.43      0.01         0.01
  YS02001762YS02001759        5.31      5.31      5.34      0.01         0.01
  YS02001765YS02001762        5.27      5.27      5.31      0.01         0.01
  YS02001770YS02001767        5.22      5.22      5.22      0.01         0.27
  YS02001774YS02001770        5.17      5.17      5.30      0.01         0.01
  YS02001779YS02001774        4.61      4.61      5.30      0.01         0.01
  YS02001649YS02001757        5.32      5.32      5.43      0.01         0.01
  YS02001767YS02001765        5.22      5.22      5.27      0.01         0.01
  YS02001788YS02001790        0.01      0.01      1.95      0.01         0.01
  YS02001790YS02001791        1.95      1.95      2.32      0.01         0.01
  YS02001791YS02001793        2.32      2.32      2.65      0.01         0.01
  YS02001629YS02163301        5.13      5.13      5.20      0.01         0.01
  YS02001619YS02001622        4.21      4.21      4.25      0.01         0.01
  YS02001622YS02001625        4.25      4.25      4.96      0.01         0.01
  YS02001625YS02001629        4.22      4.22      4.96      0.01         0.01
  YS02163301YS02001633        5.20      5.20      5.27      0.01         0.01
  YS02163601YS02164001        5.26      5.26      5.32      0.01         0.01
  YS02164001YS02001641        5.26      5.26      5.29      0.01         0.01
  YS02001641YS02001644        5.28      5.29      5.29      0.01         0.35
  YS02001647YS02001649        4.91      4.91      5.32      0.01         0.01
  YS02001907YS02006553        0.01      0.01      0.56      0.01         0.01
  YS02001633YS02163601        5.25      5.25      5.32      0.01         0.01
  YS02001644YS02001647        4.91      4.91      5.29      0.01         0.01
  YS02001745YS02001748        0.01      0.01      3.67      0.01         0.01
  YS02001748YS02001751        3.91      3.91      4.27      0.01         0.01
  YS02001751YS02001754        4.27      4.27      4.70      0.01         0.01
  YS02001754YS02001757        4.88      4.88      5.43      0.01         0.01
  YS02001652YS02001649        4.95      4.95      5.32      0.01         0.01
  YS02001655YS02001652        4.32      4.32      4.83      0.01         0.01
  YS02001658YS02001655        3.70      3.70      4.32      0.01         0.01
  YS02001661YS02001658        0.01      0.01      3.70      0.01         0.01
  YS02001793JiankangQianchi        2.59      2.59      5.15      0.01         0.01
  YS02001757CaochengTiaoxuchi        4.02      4.02      5.43      0.01         0.01
  
  
  ***************
  Pumping Summary
  ***************
  
  ---------------------------------------------------------------------------------------------------------
                                                  Min       Avg       Max     Total     Power    % Time Off
                        Percent   Number of      Flow      Flow      Flow    Volume     Usage    Pump Curve
  Pump                 Utilized   Start-Ups       LPS       LPS       LPS  10^6 ltr     Kw-hr    Low   High
  ---------------------------------------------------------------------------------------------------------
  CC-Pump-1               12.77           3      0.00     95.75    200.00     0.360      0.35    0.0    0.0
  CC-Pump-2               28.84           4      0.00    130.04    200.00     0.971      1.30    0.0   18.8
  JK-Pump-1               23.38           5      0.00    133.82    300.00     0.700      6.42    0.0    0.0
  JK-Pump-2               48.93           7      0.00    177.35    300.00     1.817     18.31    0.0    0.0
  XR-Pump-1               61.69           9      0.00     53.87     95.00     0.998      5.21    0.0    0.0
  XR-Pump-2                8.52           2      0.00     43.85     95.00     0.114      0.50    0.0    0.0
  XR-Pump-3                4.26           1      0.00     49.20     94.97     0.057      0.25    0.0    0.0
  XR-Pump-4               36.17           7      0.00     44.81     95.00     0.513      2.45    0.0    0.0
  

  Analysis begun on:  Wed Jan  5 21:45:03 2022
  Analysis ended on:  Wed Jan  5 21:45:04 2022
  Total elapsed time: 00:00:01