
  EPA STORM WATER MANAGEMENT MODEL - VERSION 5.1 (Build 5.3.0.dev0)
  --------------------------------------------------------------

  WARNING 04: minimum elevation drop used for Conduit WS02004404WS02004405
  WARNING 03: negative offset ignored for Link YS02001904YS02001907
  
  *********************************************************
  NOTE: The summary statistics displayed in this report are
  based on results found at every computational time step,  
  not just on results from each reporting time step.
  *********************************************************
  
  ****************
  Analysis Options
  ****************
  Flow Units ............... LPS
  Process Models:
    Rainfall/Runoff ........ YES
    RDII ................... NO
    Snowmelt ............... NO
    Groundwater ............ NO
    Flow Routing ........... YES
    Ponding Allowed ........ NO
    Water Quality .......... NO
  Infiltration Method ...... HORTON
  Flow Routing Method ...... DYNWAVE
  Surcharge Method ......... EXTRAN
  Starting Date ............ 08/28/2015 08:00:00
  Ending Date .............. 08/28/2015 15:50:00
  Antecedent Dry Days ...... 8.0
  Report Time Step ......... 00:01:00
  Wet Time Step ............ 00:01:00
  Dry Time Step ............ 00:01:00
  Routing Time Step ........ 5.00 sec
  Variable Time Step ....... YES
  Maximum Trials ........... 8
  Number of Threads ........ 4
  Head Tolerance ........... 0.001500 m
  
  
  **************************        Volume         Depth
  Runoff Quantity Continuity     hectare-m            mm
  **************************     ---------       -------
  Total Precipitation ......         3.517         7.699
  Evaporation Loss .........         0.000         0.000
  Infiltration Loss ........         0.893         1.955
  Surface Runoff ...........         1.682         3.682
  Final Storage ............         0.943         2.064
  Continuity Error (%) .....        -0.018
  
  
  **************************        Volume        Volume
  Flow Routing Continuity        hectare-m      10^6 ltr
  **************************     ---------     ---------
  Dry Weather Inflow .......         0.616         6.165
  Wet Weather Inflow .......         1.681        16.806
  Groundwater Inflow .......         0.000         0.000
  RDII Inflow ..............         0.000         0.000
  External Inflow ..........         0.102         1.024
  External Outflow .........         0.957         9.570
  Flooding Loss ............         0.872         8.720
  Evaporation Loss .........         0.000         0.000
  Exfiltration Loss ........         0.000         0.000
  Initial Stored Volume ....         0.076         0.761
  Final Stored Volume ......         0.648         6.480
  Continuity Error (%) .....        -0.056
  
  
  *************************
  Highest Continuity Errors
  *************************
  Node YS02001774 (35.15%)
  Node HS02004842 (23.63%)
  Node YS02001884 (15.34%)
  Node YSB1171 (5.13%)
  Node HS02004817 (4.11%)
  
  
  ***************************
  Time-Step Critical Elements
  ***************************
  Link WS02006252WS02006251 (61.92%)
  Link 3 (28.88%)
  Link WS02006280WS02006229 (2.47%)
  Link WS02006238WS02006235 (1.82%)
  
  
  ********************************
  Highest Flow Instability Indexes
  ********************************
  Link WS02006113WS02006111 (49)
  Link YS02001774YS02001770 (30)
  Link YS02001779YS02001774 (30)
  Link YS02001619YS02001622 (28)
  Link YS02001629YS02163301 (27)
  
  
  *************************
  Routing Time Step Summary
  *************************
  Minimum Time Step           :     0.21 sec
  Average Time Step           :     0.96 sec
  Maximum Time Step           :     5.00 sec
  Percent in Steady State     :    -0.00
  Average Iterations per Step :     4.34
  Percent Not Converging      :    22.18
  
  
  ***************************
  Subcatchment Runoff Summary
  ***************************
  
  ------------------------------------------------------------------------------------------------------------------------------
                            Total      Total      Total      Total     Imperv       Perv      Total       Total     Peak  Runoff
                           Precip      Runon       Evap      Infil     Runoff     Runoff     Runoff      Runoff   Runoff   Coeff
  Subcatchment                 mm         mm         mm         mm         mm         mm         mm    10^6 ltr      LPS
  ------------------------------------------------------------------------------------------------------------------------------
  sub0                       7.70       0.00       0.00       0.54       5.90       0.00       5.90        0.00     2.28   0.766
  sub1                       7.70       0.00       0.00       0.85       5.60       0.00       5.60        0.04    12.01   0.727
  sub2                       7.70       0.00       0.00       2.85       3.94       0.00       3.94        0.04    10.62   0.512
  sub3                       7.70       0.00       0.00       2.85       3.91       0.00       3.91        0.09    21.84   0.508
  sub4                       7.70       0.00       0.00       0.85       5.45       0.00       5.45        0.11    24.49   0.708
  sub5                       7.70       0.00       0.00       0.54       5.85       0.00       5.85        0.07    21.36   0.760
  sub7                       7.70       0.00       0.00       0.69       5.75       0.00       5.75        0.02     7.53   0.747
  sub8                       7.70       0.00       0.00       0.69       5.74       0.00       5.74        0.04    13.30   0.746
  sub9                       7.70       0.00       0.00       0.69       5.74       0.00       5.74        0.03     9.86   0.746
  sub10                      7.70       0.00       0.00       0.62       5.79       0.00       5.79        0.06    21.33   0.752
  sub11                      7.70       0.00       0.00       0.62       5.81       0.00       5.81        0.07    25.01   0.754
  sub12                      7.70       0.00       0.00       1.00       5.51       0.00       5.51        0.05    21.13   0.716
  sub14                      7.70       0.00       0.00       0.69       5.74       0.00       5.74        0.05    19.27   0.745
  sub15                      7.70       0.00       0.00       2.31       4.41       0.00       4.41        0.08    26.13   0.573
  sub16                      7.70       0.00       0.00       2.54       4.24       0.00       4.24        0.04    18.58   0.551
  sub17                      7.70       0.00       0.00       2.46       4.30       0.00       4.30        0.04    15.03   0.559
  sub22                      7.70       0.00       0.00       3.31       3.60       0.00       3.60        0.23    85.60   0.468
  sub23                      7.70       0.00       0.00       2.85       3.98       0.00       3.98        0.19    72.88   0.517
  sub60                      7.70       0.00       0.00       0.92       4.16       0.00       4.16        1.26   124.62   0.540
  sub61                      7.70       0.00       0.00       1.31       4.36       0.00       4.36        1.34   156.18   0.566
  sub62                      7.70       0.00       0.00       0.62       4.70       0.00       4.70        1.44   159.65   0.610
  sub63                      7.70       0.00       0.00       2.23       3.85       0.00       3.85        1.17   145.76   0.500
  sub64                      7.70       0.00       0.00       1.15       3.98       0.00       3.98        1.21   118.39   0.517
  sub65                      7.70       0.00       0.00       1.00       4.03       0.00       4.03        1.24   120.16   0.524
  sub66                      7.70       0.00       0.00       2.23       3.45       0.00       3.45        1.06   108.45   0.448
  sub67                      7.70       0.00       0.00       0.62       5.08       0.00       5.08        1.57   204.88   0.660
  sub68                      7.70       0.00       0.00       1.08       4.61       0.00       4.61        1.42   172.66   0.599
  sub69                      7.70       0.00       0.00       1.15       4.90       0.00       4.90        1.14   171.52   0.636
  sub70                      7.70       5.00       0.00       4.32       6.24       0.00       6.24        1.43   142.17   0.491
  sub71                      7.70       0.00       0.00       0.62       4.52       0.00       4.52        1.07   111.46   0.588
  sub72                      7.70       0.00       0.00       0.54       3.34       0.00       3.34        0.68    53.99   0.434
  sub73                      7.70       6.07       0.00       4.68       6.53       0.00       6.53        1.53   124.36   0.474
  sub74                      7.70       0.00       0.00       5.77       1.47       0.00       1.47        0.59    95.72   0.191
  
  
  ******************
  Node Depth Summary
  ******************
  
  ---------------------------------------------------------------------------------
                                 Average  Maximum  Maximum  Time of Max    Reported
                                   Depth    Depth      HGL   Occurrence   Max Depth
  Node                 Type       Meters   Meters   Meters  days hr:min      Meters
  ---------------------------------------------------------------------------------
  WS02001211           JUNCTION     0.48     0.60     5.44     0  02:41        0.60
  WS02001212           JUNCTION     0.24     0.35     5.41     0  02:42        0.35
  WS02001213           JUNCTION     0.48     0.60     5.37     0  02:42        0.60
  WS02003069           JUNCTION     0.32     0.46     5.04     0  02:44        0.46
  WS02003072           JUNCTION     0.39     0.53     4.90     0  02:44        0.53
  WS02003073           JUNCTION     0.23     0.32     4.38     0  02:45        0.32
  WS02003060           JUNCTION     0.29     0.41     5.34     0  02:43        0.41
  WS02003066           JUNCTION     0.21     0.28     5.84     0  02:29        0.28
  WS02003059           JUNCTION     0.55     0.67     5.36     0  02:42        0.67
  WS02003067           JUNCTION     0.53     0.68     6.00     0  02:29        0.68
  WS02004401           JUNCTION     0.61     0.81     6.81     0  02:25        0.81
  WS02004402           JUNCTION     0.64     0.84     6.80     0  02:25        0.84
  WS02004403           JUNCTION     0.67     0.86     6.79     0  02:25        0.86
  WS02004404           JUNCTION     0.74     0.93     6.78     0  02:25        0.93
  WS02004406           JUNCTION     0.75     0.93     6.76     0  02:25        0.93
  WS02004409           JUNCTION     0.43     0.63     6.40     0  02:28        0.63
  WS02004410           JUNCTION     0.45     0.65     6.37     0  02:28        0.65
  WS02004411           JUNCTION     0.47     0.66     6.34     0  02:28        0.66
  WS02004412           JUNCTION     0.49     0.67     6.31     0  02:28        0.67
  WS02004413           JUNCTION     0.65     0.83     6.30     0  02:29        0.83
  WS02004405           JUNCTION     0.74     0.92     6.77     0  02:25        0.92
  WS02006109           JUNCTION     0.68     0.91     7.53     0  02:21        0.91
  WS02006110           JUNCTION     0.69     0.88     7.47     0  02:21        0.88
  WS02006111           JUNCTION     0.19     0.27     6.98     0  02:21        0.27
  WS02006112           JUNCTION     0.77     1.00     6.88     0  02:24        1.00
  WS02006113           JUNCTION     0.30     0.43     7.32     0  02:21        0.43
  WS02006115           JUNCTION     0.50     0.71     6.85     0  02:25        0.71
  WS02006116           JUNCTION     0.58     0.79     6.83     0  02:25        0.79
  WS02006230           JUNCTION     0.62     0.89     7.64     0  02:21        0.89
  WS02006231           JUNCTION     0.41     0.58     7.70     0  06:03        0.58
  WS02006232           JUNCTION     0.53     0.73     7.77     0  06:41        0.73
  WS02006234           JUNCTION     0.44     0.67     7.83     0  06:02        0.67
  WS02006235           JUNCTION     0.47     0.71     7.88     0  06:42        0.71
  WS02006238           JUNCTION     0.49     0.74     7.89     0  06:42        0.74
  WS02006240           JUNCTION     0.39     0.67     7.96     0  06:02        0.67
  WS02006242           JUNCTION     0.45     0.75     8.02     0  06:42        0.74
  WS02006243           JUNCTION     0.32     0.63     8.05     0  06:02        0.63
  WS02006245           JUNCTION     0.31     0.60     8.09     0  06:02        0.60
  WS02006247           JUNCTION     0.34     0.62     8.12     0  06:02        0.61
  WS02006248           JUNCTION     0.29     0.55     8.14     0  06:02        0.55
  WS02006249           JUNCTION     0.33     0.58     8.17     0  06:01        0.58
  WS02006239           JUNCTION     0.44     0.72     7.93     0  06:02        0.72
  WS02006251           JUNCTION     0.31     0.60     8.27     0  03:00        0.60
  WS02006252           JUNCTION     0.27     0.59     8.83     0  03:00        0.59
  WS02006253           JUNCTION     0.34     0.63     8.27     0  03:00        0.63
  WS02006256           JUNCTION     0.87     1.12     8.06     0  06:00        1.12
  WS02004138           JUNCTION     0.08     0.14     7.39     0  00:50        0.14
  WS02004407           JUNCTION     0.19     0.28     6.59     0  02:26        0.28
  WS02006228           JUNCTION     0.67     0.94     7.59     0  02:21        0.94
  WS02006229           JUNCTION     0.64     0.93     7.62     0  02:21        0.93
  WS02006280           JUNCTION     0.06     0.18     8.45     0  02:14        0.18
  WS02006284           JUNCTION     0.35     0.53     8.93     0  02:14        0.53
  WS02006287           JUNCTION     0.08     0.27     9.22     0  02:13        0.27
  WSF200               JUNCTION     0.19     0.28     5.51     0  02:28        0.28
  HS02004901           JUNCTION     0.11     0.28    10.10     0  02:11        0.28
  HS02004881           JUNCTION     0.01     0.03     9.06     0  02:14        0.03
  HS02004876           JUNCTION     0.04     0.11     9.14     0  02:08        0.11
  HS02004870           JUNCTION     0.01     0.06     9.34     0  02:14        0.06
  HS02004862           JUNCTION     0.01     0.06     9.45     0  02:15        0.06
  HS02004856           JUNCTION     0.07     0.12     9.54     0  02:14        0.12
  HS02004852           JUNCTION     0.01     0.04     9.55     0  02:15        0.04
  HS02004848           JUNCTION     0.01     0.04     9.64     0  02:14        0.04
  HS02004842           JUNCTION     0.33     0.37     9.64     0  02:14        0.37
  HS02004837           JUNCTION     0.03     0.06     9.64     0  02:14        0.06
  HS02004830           JUNCTION     0.04     0.07     9.54     0  02:14        0.07
  HS02004824           JUNCTION     0.02     0.05     9.45     0  02:17        0.05
  HS02004817           JUNCTION     0.43     0.57     9.42     0  02:14        0.57
  HS02004807           JUNCTION     0.12     0.25     9.42     0  02:14        0.25
  HS02004802           JUNCTION     0.15     0.28     9.41     0  02:14        0.28
  HS02004799           JUNCTION     0.10     0.32     9.53     0  02:12        0.32
  HS02004792           JUNCTION     0.03     0.13     9.66     0  02:12        0.13
  HS02004788           JUNCTION     0.02     0.10    10.00     0  02:12        0.10
  HS02004785           JUNCTION     0.04     0.17    10.07     0  02:12        0.17
  HS02004777           JUNCTION     0.14     0.29    10.09     0  02:12        0.29
  HS02004770           JUNCTION     0.11     0.27    10.10     0  02:11        0.27
  HS02004480           JUNCTION     0.07     0.26     9.50     0  02:13        0.26
  HS02004479           JUNCTION     0.10     0.29     9.50     0  02:13        0.29
  HS02004478           JUNCTION     0.05     0.17     9.40     0  02:14        0.17
  YS02001745           JUNCTION     0.62     0.85     8.37     0  03:59        0.85
  YS02001748           JUNCTION     1.01     1.30     8.38     0  04:00        1.29
  YS02001751           JUNCTION     1.19     1.56     8.44     0  03:05        1.49
  YS02001754           JUNCTION     1.44     1.79     8.40     0  04:00        1.77
  YS02001762           JUNCTION     1.64     2.01     8.41     0  04:00        1.98
  YS02001765           JUNCTION     1.59     1.96     8.41     0  04:00        1.94
  YS02001767           JUNCTION     1.56     1.92     8.41     0  03:41        1.89
  YS02001770           JUNCTION     1.55     1.93     8.43     0  03:42        1.89
  YS02001774           JUNCTION     1.62     2.00     8.42     0  03:42        1.95
  YS02001779           JUNCTION     1.37     1.68     8.37     0  03:41        1.68
  YS02001882           JUNCTION     0.33     0.60     7.32     0  02:45        0.60
  YS02001884           JUNCTION     0.42     0.70     7.31     0  02:46        0.69
  YS02001759           JUNCTION     1.67     2.05     8.41     0  04:00        2.02
  YS02001887           JUNCTION     0.50     0.78     7.31     0  02:47        0.77
  YS02001890           JUNCTION     0.53     0.81     7.31     0  02:46        0.80
  YS02001898           JUNCTION     0.30     0.56     7.30     0  02:44        0.56
  YS02001901           JUNCTION     0.42     0.69     7.30     0  02:43        0.69
  YS02001904           JUNCTION     0.40     0.67     7.30     0  02:46        0.67
  YS02001907           JUNCTION     0.73     1.01     7.30     0  02:48        1.01
  YS02001910           JUNCTION     0.52     0.79     7.30     0  02:41        0.79
  YS02001915           JUNCTION     0.32     0.57     7.29     0  02:49        0.57
  YS02001918           JUNCTION     0.10     0.22     7.29     0  02:50        0.22
  YS02001619           JUNCTION     1.16     1.54     8.47     0  03:21        1.49
  YS02001629           JUNCTION     1.51     1.84     8.39     0  03:50        1.83
  YS02001641           JUNCTION     1.61     1.94     8.37     0  03:45        1.92
  YS02001644           JUNCTION     1.61     1.92     8.35     0  03:45        1.92
  YS02001652           JUNCTION     1.46     2.07     8.66     0  03:04        1.83
  YS02001655           JUNCTION     1.22     2.20     9.05     0  02:56        1.61
  YS02001920           JUNCTION     0.20     0.30     7.30     0  02:50        0.30
  YS02001923           JUNCTION     0.08     0.11     7.37     0  03:01        0.11
  YS02001926           JUNCTION     0.16     0.21     7.66     0  03:01        0.21
  YS02001929           JUNCTION     0.08     0.11     7.80     0  03:01        0.11
  YS02001658           JUNCTION     0.96     1.88     9.02     0  03:19        1.35
  YS02001661           JUNCTION     0.73     1.26     8.67     0  04:00        1.12
  YS02001664           JUNCTION     0.31     0.56     8.49     0  03:57        0.55
  YS02001622           JUNCTION     1.18     1.53     8.44     0  03:42        1.51
  YS02001633           JUNCTION     1.60     1.94     8.40     0  03:45        1.92
  YS02001649           JUNCTION     1.65     2.05     8.44     0  04:00        2.01
  YS02001757           JUNCTION     1.77     2.15     8.42     0  04:00        2.12
  YS02001895           JUNCTION     0.30     0.56     7.30     0  02:46        0.56
  YS02001625           JUNCTION     1.46     1.78     8.38     0  03:25        1.78
  YS02163301           JUNCTION     1.54     1.88     8.39     0  03:45        1.86
  YS02163601           JUNCTION     1.65     1.99     8.39     0  03:45        1.97
  YS02164001           JUNCTION     1.59     1.92     8.38     0  03:45        1.91
  YS02001647           JUNCTION     1.44     1.79     8.40     0  04:00        1.76
  YSB1154              JUNCTION     0.24     0.44     9.50     0  02:13        0.44
  YSB6556              JUNCTION     0.14     0.33     9.50     0  02:12        0.33
  YSB1174              JUNCTION     0.19     0.39     9.50     0  02:13        0.39
  YSB1171              JUNCTION     0.39     0.60     9.50     0  02:13        0.60
  YS02006553           JUNCTION     0.73     1.03     7.32     0  02:56        1.01
  YS02006561           JUNCTION     0.16     0.32     6.98     0  02:47        0.31
  YS02006556           JUNCTION     0.70     0.98     7.29     0  02:48        0.97
  YS02006558           JUNCTION     0.75     1.03     7.29     0  02:48        1.02
  YS02001783           JUNCTION     0.37     1.08     7.22     0  02:48        0.79
  YS02001784           JUNCTION     0.42     1.07     7.14     0  02:48        0.82
  YS02001786           JUNCTION     0.41     1.11     7.14     0  02:48        0.80
  YS02001788           JUNCTION     0.40     1.06     7.04     0  02:48        0.80
  YS02001790           JUNCTION     0.61     1.56     7.20     0  02:46        1.07
  YS02001791           JUNCTION     0.70     2.04     7.51     0  02:45        1.18
  YS02001793           JUNCTION     1.18     2.45     7.28     0  02:43        1.79
  WS02004139           JUNCTION     0.42     0.54     5.45     0  03:40        0.54
  WSC                  OUTFALL      0.23     0.32     0.99     0  02:46        0.32
  3                    OUTFALL      0.04     0.12     6.12     0  06:00        0.12
  4                    OUTFALL      0.01     0.08     7.08     0  06:01        0.08
  5                    OUTFALL      0.00     0.00     5.00     0  00:00        0.00
  JK-storage           STORAGE      4.69     5.80     6.60     0  02:46        5.80
  CC-storage           STORAGE      1.03     1.37     8.37     0  05:16        1.37
  XR-storage           STORAGE      7.66     7.72     5.72     0  00:43        7.72
  
  
  *******************
  Node Inflow Summary
  *******************
  
  -------------------------------------------------------------------------------------------------
                                  Maximum  Maximum                  Lateral       Total        Flow
                                  Lateral    Total  Time of Max      Inflow      Inflow     Balance
                                   Inflow   Inflow   Occurrence      Volume      Volume       Error
  Node                 Type           LPS      LPS  days hr:min    10^6 ltr    10^6 ltr     Percent
  -------------------------------------------------------------------------------------------------
  WS02001211           JUNCTION      7.35   189.88     0  03:40       0.207        2.43       1.015
  WS02001212           JUNCTION      0.00   184.67     0  03:41           0        2.41       0.432
  WS02001213           JUNCTION      0.00   184.28     0  03:41           0        2.41       0.770
  WS02003069           JUNCTION      0.32   620.19     0  02:43     0.00902        8.37       0.264
  WS02003072           JUNCTION      0.00   619.76     0  02:44           0        8.35       0.345
  WS02003073           JUNCTION      1.82   621.18     0  02:45      0.0514        8.37       0.376
  WS02003060           JUNCTION     16.53   619.86     0  02:43       0.466        8.42       0.254
  WS02003066           JUNCTION      0.00   484.34     0  02:29           0         5.6       0.075
  WS02003059           JUNCTION      0.00   185.82     0  03:42           0        2.41       1.354
  WS02003067           JUNCTION      0.00   484.31     0  02:29           0        5.61       0.159
  WS02004401           JUNCTION      0.00   489.58     0  02:24           0        5.82       0.339
  WS02004402           JUNCTION      0.00   488.93     0  02:24           0         5.8       0.323
  WS02004403           JUNCTION      0.00   488.58     0  02:25           0        5.79       0.297
  WS02004404           JUNCTION      0.16   488.63     0  02:25     0.00457        5.77       0.226
  WS02004406           JUNCTION      0.00   488.61     0  02:25           0        5.74       0.554
  WS02004409           JUNCTION      0.00   488.54     0  02:26           0         5.7       0.258
  WS02004410           JUNCTION      0.00   486.80     0  02:26           0        5.69       0.297
  WS02004411           JUNCTION      0.00   485.56     0  02:27           0        5.67       0.309
  WS02004412           JUNCTION      0.00   484.82     0  02:28           0        5.65       0.338
  WS02004413           JUNCTION      0.00   484.42     0  02:28           0        5.64       0.509
  WS02004405           JUNCTION      0.04   488.63     0  02:25     0.00107        5.76       0.339
  WS02006109           JUNCTION      1.23   484.96     0  02:21      0.0347         5.9       0.284
  WS02006110           JUNCTION      0.00   484.97     0  02:21           0        5.88       0.321
  WS02006111           JUNCTION      0.00   500.51     0  02:21           0        5.85       0.065
  WS02006112           JUNCTION     15.03   497.02     0  02:21      0.0369        5.89       0.472
  WS02006113           JUNCTION      0.00   485.00     0  02:21           0        5.86       0.136
  WS02006115           JUNCTION      0.00   493.12     0  02:22           0        5.86       0.317
  WS02006116           JUNCTION      0.00   490.82     0  02:23           0        5.84       0.276
  WS02006230           JUNCTION     10.28   393.48     0  06:02        0.29        4.72       0.249
  WS02006231           JUNCTION      0.00   386.26     0  06:42           0        4.43       0.175
  WS02006232           JUNCTION      0.00   387.11     0  06:42           0        4.44       0.320
  WS02006234           JUNCTION      0.00   386.31     0  06:42           0        4.45       0.137
  WS02006235           JUNCTION      0.00   388.50     0  06:41           0         4.5       0.207
  WS02006238           JUNCTION      0.00   324.29     0  03:02           0        3.09       0.184
  WS02006240           JUNCTION      0.00   335.95     0  03:02           0        3.06       0.326
  WS02006242           JUNCTION      0.00   344.13     0  03:01           0        3.06       0.427
  WS02006243           JUNCTION      0.00   351.22     0  03:01           0        3.05       0.017
  WS02006245           JUNCTION      0.00   355.66     0  03:01           0        3.06       0.376
  WS02006247           JUNCTION      0.00   359.68     0  03:00           0        3.07       0.207
  WS02006248           JUNCTION      0.00   363.61     0  03:00           0        3.07       0.058
  WS02006249           JUNCTION      0.00   412.48     0  03:00           0        3.14       0.429
  WS02006239           JUNCTION      0.00   328.34     0  03:02           0        3.07       0.102
  WS02006251           JUNCTION      0.08   414.42     0  03:00     0.00217        3.17       0.262
  WS02006252           JUNCTION      0.00   399.95     0  06:40           0        2.94       0.014
  WS02006253           JUNCTION      2.28    67.60     0  02:14     0.00477       0.234       1.686
  WS02006256           JUNCTION      0.00   300.00     0  02:20           0        2.62       0.084
  WS02004138           JUNCTION      0.00   189.98     0  06:20           0        2.22       0.083
  WS02004407           JUNCTION      0.00   488.58     0  02:25           0        5.71       0.113
  WS02006228           JUNCTION      0.00   483.73     0  02:21           0        5.87       0.214
  WS02006229           JUNCTION      0.00   483.93     0  02:21           0        5.89       0.218
  WS02006280           JUNCTION      0.00   336.71     0  02:14           0        1.19       0.006
  WS02006284           JUNCTION      0.10   336.65     0  02:14      0.0027        1.19       0.095
  WS02006287           JUNCTION      0.00   336.53     0  02:14           0        1.19       0.061
  WSF200               JUNCTION      0.00   484.33     0  02:29           0        5.59       0.066
  HS02004901           JUNCTION     18.58    18.58     0  02:08      0.0444      0.0445       4.109
  HS02004881           JUNCTION      7.53    65.87     0  02:14      0.0194       0.207       0.116
  HS02004876           JUNCTION     12.01    59.05     0  02:14      0.0372       0.188       0.285
  HS02004870           JUNCTION     13.30    47.29     0  02:14      0.0367       0.151       0.070
  HS02004862           JUNCTION     10.82    34.86     0  02:14      0.0424       0.114       0.148
  HS02004856           JUNCTION      9.86    24.13     0  02:14      0.0276      0.0735       2.001
  HS02004852           JUNCTION      0.00    14.89     0  02:14           0      0.0459       0.114
  HS02004848           JUNCTION     21.84    21.84     0  02:16      0.0879      0.0879       0.049
  HS02004842           JUNCTION      0.00     7.81     0  02:26           0       0.055      30.935
  HS02004837           JUNCTION     27.68    33.96     0  02:13       0.243       0.285       0.283
  HS02004830           JUNCTION      0.15    34.09     0  02:14     0.00423       0.275       0.450
  HS02004824           JUNCTION     24.54    58.34     0  02:17       0.115       0.389       0.138
  HS02004817           JUNCTION      0.60    58.92     0  02:17      0.0169       0.406       4.286
  HS02004807           JUNCTION     25.01    81.76     0  02:15      0.0674       0.456       0.934
  HS02004802           JUNCTION      0.00    82.40     0  02:16           0       0.452       0.907
  HS02004799           JUNCTION     19.27   217.43     0  02:12      0.0546       0.641       0.357
  HS02004792           JUNCTION     85.88   198.49     0  02:11       0.235       0.586       0.069
  HS02004788           JUNCTION     27.80   115.36     0  02:12       0.123       0.352       0.110
  HS02004785           JUNCTION      0.15    87.97     0  02:11     0.00423       0.231       0.210
  HS02004777           JUNCTION      0.03    88.42     0  02:10    0.000846       0.232       2.287
  HS02004770           JUNCTION     72.88    89.89     0  02:09        0.19       0.232       1.347
  HS02004480           JUNCTION      0.00   256.48     0  02:13           0       0.752       0.103
  HS02004479           JUNCTION      0.00    39.94     0  02:14           0       0.124       0.594
  HS02004478           JUNCTION      0.00   336.52     0  02:14           0        1.19       0.051
  YS02001745           JUNCTION    124.63   130.35     0  02:58        1.26        1.26       0.831
  YS02001748           JUNCTION      0.04   265.93     0  02:50     0.00127        1.25       1.864
  YS02001751           JUNCTION      0.01   305.90     0  02:44     0.00031        1.23       1.911
  YS02001754           JUNCTION      0.26   193.73     0  02:45     0.00733        1.21       2.042
  YS02001762           JUNCTION      0.00   192.93     0  02:46           0        1.37       1.566
  YS02001765           JUNCTION      0.00   190.60     0  02:46           0        1.37       1.796
  YS02001767           JUNCTION      0.54   188.21     0  02:46      0.0151        1.39       2.608
  YS02001770           JUNCTION    159.80   183.65     0  02:25        1.45        1.46       2.178
  YS02001774           JUNCTION      0.00    65.37     0  02:11           0      0.0715      54.211
  YS02001779           JUNCTION      0.01    49.95     0  02:24    0.000141      0.0334      84.768
  YS02001882           JUNCTION      0.00     9.59     0  02:39           0      0.0101      22.589
  YS02001884           JUNCTION      0.00    17.98     0  02:04           0      0.0345      18.114
  YS02001759           JUNCTION    156.22   352.96     0  02:46        1.34        2.68       0.850
  YS02001887           JUNCTION    205.33   215.16     0  02:41        1.58         1.6       0.477
  YS02001890           JUNCTION      0.00   210.99     0  02:40           0        1.56       0.533
  YS02001898           JUNCTION      0.00   213.29     0  02:37           0        1.55       0.164
  YS02001901           JUNCTION      0.00   222.94     0  02:43           0        1.55       0.385
  YS02001904           JUNCTION      0.00   224.97     0  02:43           0        1.55       0.357
  YS02001907           JUNCTION      0.00   412.67     0  02:48           0        3.36       0.681
  YS02001910           JUNCTION      0.00   179.79     0  02:42           0        1.82       0.591
  YS02001915           JUNCTION    111.48   172.19     0  02:57        1.07        1.83       0.278
  YS02001918           JUNCTION      0.00    59.13     0  02:57           0       0.758       0.184
  YS02001619           JUNCTION    108.45   108.45     0  02:49        1.06        1.06       1.130
  YS02001629           JUNCTION      0.00   241.23     0  02:51           0       0.985       2.929
  YS02001641           JUNCTION      0.00   249.56     0  02:58           0        2.13       1.000
  YS02001644           JUNCTION    118.43   413.00     0  04:50        1.21        3.91       0.673
  YS02001652           JUNCTION      0.00   228.61     0  02:44           0        1.11       2.178
  YS02001655           JUNCTION      0.15   388.71     0  02:46     0.00434        1.13       1.958
  YS02001920           JUNCTION      2.87    56.87     0  03:01      0.0809       0.761       0.311
  YS02001923           JUNCTION      0.04    54.00     0  03:01     0.00106        0.68       0.056
  YS02001926           JUNCTION      0.05    54.02     0  03:01     0.00147       0.682       0.386
  YS02001929           JUNCTION     53.99    53.99     0  03:01       0.681       0.681       0.054
  YS02001658           JUNCTION      0.00   496.08     0  03:19           0        1.24       1.747
  YS02001661           JUNCTION      0.00   391.13     0  03:18           0        1.68       0.619
  YS02001664           JUNCTION    145.76   311.67     0  03:59        1.17         1.6       0.293
  YS02001622           JUNCTION      0.00   171.43     0  02:51           0        1.05       3.071
  YS02001633           JUNCTION    120.36   254.17     0  02:58        1.25        2.19       1.480
  YS02001649           JUNCTION      0.00   548.78     0  02:45           0        3.84       0.978
  YS02001757           JUNCTION      0.00   939.12     0  02:52           0        7.06       1.316
  YS02001895           JUNCTION      0.00   209.96     0  02:38           0        1.56       0.269
  YS02001625           JUNCTION      0.00   241.77     0  02:51           0        1.02       4.051
  YS02163301           JUNCTION      0.00   135.53     0  02:58           0       0.973       2.529
  YS02163601           JUNCTION      0.11   252.77     0  02:58      0.0031        2.14       1.415
  YS02164001           JUNCTION      0.00   252.33     0  02:58           0        2.12       0.949
  YS02001647           JUNCTION      0.00   366.64     0  02:58           0        2.97       0.947
  YSB1154              JUNCTION     21.36    21.36     0  02:12      0.0662      0.0675       2.182
  YSB6556              JUNCTION      0.00    21.33     0  02:12           0      0.0685       1.856
  YSB1174              JUNCTION     21.13    21.13     0  02:07      0.0481      0.0491       2.680
  YSB1171              JUNCTION      0.00    39.85     0  02:12           0       0.123       5.411
  YS02006553           JUNCTION      0.00   399.46     0  02:56           0        3.35       0.439
  YS02006561           JUNCTION      0.00   597.45     0  02:56           0        4.74      -0.008
  YS02006556           JUNCTION      0.00   394.23     0  02:56           0        3.36       0.318
  YS02006558           JUNCTION    173.54   573.09     0  02:56        1.44        4.77       0.120
  YS02001783           JUNCTION      0.00   564.83     0  02:48           0        4.74       0.036
  YS02001784           JUNCTION      1.06   565.25     0  02:48      0.0299        4.77       0.061
  YS02001786           JUNCTION      0.06   567.67     0  02:48     0.00159        4.76       0.059
  YS02001788           JUNCTION      0.07   572.33     0  02:48       0.002        4.76       0.033
  YS02001790           JUNCTION      0.15   575.55     0  02:48     0.00437        4.77       0.158
  YS02001791           JUNCTION      0.00   575.76     0  02:48           0        4.76       0.222
  YS02001793           JUNCTION      0.00   755.77     0  02:43           0        4.76       0.288
  WS02004139           JUNCTION      0.32   189.65     0  01:40     0.00905        2.24       1.071
  WSC                  OUTFALL       0.00   620.49     0  02:46           0        8.34       0.000
  3                    OUTFALL       0.00   208.88     0  06:00           0        1.17       0.000
  4                    OUTFALL       0.00    59.54     0  06:01           0      0.0565       0.000
  5                    OUTFALL       0.00     0.00     0  00:00           0           0       0.000 ltr
  JK-storage           STORAGE       0.00   958.30     0  02:43           0         4.9       0.357
  CC-storage           STORAGE       0.00   940.57     0  02:52           0        6.55       0.956
  XR-storage           STORAGE     401.86   401.86     0  02:45        7.76        8.36       0.007
  
  
  **********************
  Node Surcharge Summary
  **********************
  
  Surcharging occurs when water rises above the top of the highest conduit.
  ---------------------------------------------------------------------
                                               Max. Height   Min. Depth
                                   Hours       Above Crown    Below Rim
  Node                 Type      Surcharged         Meters       Meters
  ---------------------------------------------------------------------
  WS02006109           JUNCTION        0.98          0.091        1.729
  WS02006232           JUNCTION        0.28          0.033        1.447
  WS02006235           JUNCTION        0.03          0.003        1.287
  WS02006238           JUNCTION        0.19          0.023        1.407
  WS02006242           JUNCTION        0.08          0.021        0.799
  WS02006252           JUNCTION        0.70          0.193        0.907
  WS02006228           JUNCTION        0.84          0.106        2.094
  YS02001748           JUNCTION        4.25          0.223        0.967
  YS02001751           JUNCTION        4.67          0.556        0.644
  YS02001754           JUNCTION        5.25          0.743        0.407
  YS02001762           JUNCTION        5.48          1.015        0.135
  YS02001765           JUNCTION        5.46          0.960        0.140
  YS02001767           JUNCTION        5.43          0.921        0.109
  YS02001770           JUNCTION        5.42          0.905        0.015
  YS02001774           JUNCTION        5.48          0.996        0.054
  YS02001779           JUNCTION        5.16          0.680        0.000
  YS02001759           JUNCTION        5.49          1.050        0.160
  YS02001619           JUNCTION        4.58          0.538        0.072
  YS02001629           JUNCTION        4.63          0.464        0.006
  YS02001641           JUNCTION        5.47          0.937        0.163
  YS02001644           JUNCTION        5.47          0.920        0.000
  YS02001652           JUNCTION        5.30          1.035        0.095
  YS02001655           JUNCTION        4.75          1.200        0.000
  YS02001658           JUNCTION        4.27          0.880        0.420
  YS02001661           JUNCTION        0.03          0.192        1.198
  YS02001622           JUNCTION        4.70          0.534        0.086
  YS02001633           JUNCTION        5.44          0.922        0.138
  YS02001649           JUNCTION        5.48          1.050        0.000
  YS02001757           JUNCTION        5.53          1.155        0.055
  YS02001625           JUNCTION        5.39          0.780        0.000
  YS02163301           JUNCTION        5.43          0.877        0.153
  YS02163601           JUNCTION        5.47          0.991        0.089
  YS02164001           JUNCTION        5.45          0.923        0.177
  YS02001647           JUNCTION        5.34          0.794        0.106
  YS02006553           JUNCTION        0.08          0.031        1.159
  YS02001783           JUNCTION        0.01          0.280        1.320
  YS02001784           JUNCTION        0.02          0.271        1.219
  YS02001786           JUNCTION        0.01          0.307        1.123
  YS02001788           JUNCTION        0.01          0.259        1.221
  YS02001790           JUNCTION        2.71          0.757        0.400
  YS02001791           JUNCTION        3.31          1.236        0.684
  YS02001793           JUNCTION        4.17          1.446        1.154
  
  
  *********************
  Node Flooding Summary
  *********************
  
  Flooding refers to all water that overflows a node, whether it ponds or not.
  --------------------------------------------------------------------------
                                                             Total   Maximum
                                 Maximum   Time of Max       Flood    Ponded
                        Hours       Rate    Occurrence      Volume     Depth
  Node                 Flooded       LPS   days hr:min    10^6 ltr    Meters
  --------------------------------------------------------------------------
  YS02001779              0.83     26.03      0  03:41       0.007     0.000
  YS02001644              2.10    412.56      0  04:50       1.509     0.000
  YS02001655              0.01    190.38      0  02:57       0.000     0.000
  YS02001649              0.01      1.31      0  04:00       0.000     0.000
  YS02001625              0.04     12.39      0  03:42       0.000     0.000
  JK-storage              2.34    546.83      0  02:49       1.992     0.000
  XR-storage              7.11    401.49      0  02:50       5.211     0.000
  
  
  **********************
  Storage Volume Summary
  **********************
  
  --------------------------------------------------------------------------------------------------
                         Average     Avg  Evap Exfil       Maximum     Max    Time of Max    Maximum
                          Volume    Pcnt  Pcnt  Pcnt        Volume    Pcnt     Occurrence    Outflow
  Storage Unit           1000 m3    Full  Loss  Loss       1000 m3    Full    days hr:min        LPS
  --------------------------------------------------------------------------------------------------
  JK-storage               0.236      81     0     0         0.291     100       0  02:46     329.22
  CC-storage               2.871      18     0     0         3.819      24       0  05:16     399.95
  XR-storage               0.919      99     0     0         0.926     100       0  00:43     189.98
  
  
  ***********************
  Outfall Loading Summary
  ***********************
  
  -----------------------------------------------------------
                         Flow       Avg       Max       Total
                         Freq      Flow      Flow      Volume
  Outfall Node           Pcnt       LPS       LPS    10^6 ltr
  -----------------------------------------------------------
  WSC                  100.00    340.97    620.49       8.342
  3                     47.85    116.32    208.88       1.172
  4                     11.29     26.31     59.54       0.057
  5                      0.00      0.00      0.00       0.000
  -----------------------------------------------------------
  System                39.79    483.60    777.48       9.570
  
  
  ********************
  Link Flow Summary
  ********************
  
  -----------------------------------------------------------------------------
                                 Maximum  Time of Max   Maximum    Max/    Max/
                                  |Flow|   Occurrence   |Veloc|    Full    Full
  Link                 Type          LPS  days hr:min     m/sec    Flow   Depth
  -----------------------------------------------------------------------------
  WS02003066WSF200     CONDUIT    484.33     0  02:29      2.76    0.08    0.21
  WS02006287WS02006284 CONDUIT    336.55     0  02:14      1.91    0.16    0.28
  WS02006284WS02006280 CONDUIT    336.71     0  02:14      2.15    0.14    0.25
  WS02006280WS02006229 CONDUIT    336.71     0  02:14      3.46    0.07    0.18
  WS02006229WS02006228 CONDUIT    483.73     0  02:21      0.96    1.60    1.00
  WS02006256WS02006235 CONDUIT    149.96     0  00:15      2.14    1.59    1.00
  WS02006253WS02006251 CONDUIT     67.56     0  02:14      0.59    0.20    0.87
  WS02006252WS02006251 CONDUIT    400.23     0  06:40      3.18    1.47    1.00
  WS02006251WS02006249 CONDUIT    412.48     0  03:00      1.20    1.19    0.84
  WS02006249WS02006248 CONDUIT    363.61     0  03:00      1.17    1.99    0.79
  WS02006248WS02006247 CONDUIT    359.68     0  03:00      1.14    0.78    0.83
  WS02006247WS02006245 CONDUIT    355.66     0  03:01      1.12    2.82    0.86
  WS02006245WS02006243 CONDUIT    351.22     0  03:01      1.16    1.04    0.87
  WS02006243WS02006242 CONDUIT    344.13     0  03:01      1.04    0.74    0.95
  WS02006242WS02006240 CONDUIT    335.95     0  03:02      0.98    1.33    0.97
  WS02006240WS02006239 CONDUIT    328.34     0  03:02      1.02    1.03    0.96
  WS02006239WS02006238 CONDUIT    324.29     0  03:02      0.93    1.04    1.00
  WS02006238WS02006235 CONDUIT    322.80     0  03:03      0.92    0.72    1.00
  WS02006235WS02006234 CONDUIT    386.31     0  06:42      1.02    4.08    0.97
  WS02006234WS02006232 CONDUIT    387.11     0  06:42      1.01    0.78    0.98
  WS02006232WS02006231 CONDUIT    386.26     0  06:42      1.06    0.81    0.91
  WS02006231WS02006230 CONDUIT    383.21     0  06:02      1.34    5.81    0.77
  WS02006230WS02006229 CONDUIT    392.27     0  06:03      1.02    8.73    1.00
  WS02006228WS02006109 CONDUIT    483.73     0  02:21      0.96    2.11    1.00
  WS02006116WS02004401 CONDUIT    489.58     0  02:24      0.79    0.67    0.80
  WS02006115WS02006116 CONDUIT    490.82     0  02:23      0.94    0.63    0.72
  WS02006113WS02006111 CONDUIT    500.51     0  02:21      2.37    0.60    0.44
  WS02006112WS02006115 CONDUIT    493.12     0  02:22      0.72    0.29    0.85
  WS02006111WS02006112 CONDUIT    486.92     0  02:22      1.38    0.23    0.66
  WS02006110WS02006113 CONDUIT    485.00     0  02:21      1.17    0.44    0.77
  WS02006109WS02006110 CONDUIT    484.97     0  02:21      0.97    0.93    0.98
  WS02004411WS02004412 CONDUIT    484.82     0  02:28      0.88    0.69    0.66
  WS02004401WS02004402 CONDUIT    488.93     0  02:24      0.83    0.59    0.83
  WS02004413WS02003067 CONDUIT    484.31     0  02:29      1.05    0.21    0.57
  WS02004412WS02004413 CONDUIT    484.42     0  02:28      0.77    0.32    0.75
  WS02004410WS02004411 CONDUIT    485.56     0  02:27      0.90    0.66    0.65
  WS02004409WS02004410 CONDUIT    486.80     0  02:26      0.94    0.63    0.64
  WS02004407WS02004409 CONDUIT    488.54     0  02:26      1.46    0.17    0.46
  WS02004406WS02004407 CONDUIT    488.58     0  02:25      0.98    0.22    0.61
  WS02004405WS02004406 CONDUIT    488.61     0  02:25      0.77    0.96    0.93
  WS02004404WS02004405 CONDUIT    488.59     0  02:25      0.96    4.79    0.93
  WS02004403WS02004404 CONDUIT    488.47     0  02:25      0.85    0.35    0.89
  WS02004402WS02004403 CONDUIT    488.58     0  02:25      0.87    0.70    0.85
  WS02004139WS02001211 CONDUIT    182.53     0  03:40      0.53    0.23    0.43
  WS02004138WS02004139 CONDUIT    189.33     0  01:40      2.39    0.04    0.31
  WS02003067WS02003066 CONDUIT    484.34     0  02:29      1.14    0.16    0.40
  WS02001213WS02003059 CONDUIT    185.82     0  03:42      0.45    0.31    0.63
  WS02001212WS02001213 CONDUIT    184.28     0  03:41      1.00    0.28    0.31
  WS02001211WS02001212 CONDUIT    184.67     0  03:41      0.52    0.14    0.47
  WS02003072WS02003073 CONDUIT    619.35     0  02:45      1.49    1.34    0.39
  WS02003069WS02003072 CONDUIT    619.76     0  02:44      1.42    0.30    0.41
  WS02003060WS02003069 CONDUIT    619.87     0  02:43      1.69    0.24    0.36
  WS02003059WS02003060 CONDUIT    187.93     0  03:43      0.63    0.12    0.54
  HS02004901HS02004770 CONDUIT     17.39     0  02:11      0.06    0.07    0.39
  HS02004876HS02004881 CONDUIT     59.04     0  02:14      0.84    0.63    0.10
  HS02004870HS02004876 CONDUIT     47.25     0  02:14      0.57    0.03    0.12
  HS02004842HS02004848 CONDUIT      7.81     0  02:26      0.04    0.00    0.29
  HS02004837HS02004842 CONDUIT      8.13     0  02:26      0.42    0.00    0.31
  HS02004830HS02004837 CONDUIT     33.94     0  02:14      0.51    0.03    0.09
  HS02004824HS02004830 CONDUIT     34.08     0  02:15      0.55    0.04    0.09
  HS02004817HS02004824 CONDUIT     58.32     0  02:17      0.19    0.03    0.44
  HS02004770HS02004777 CONDUIT     88.39     0  02:10      0.32    0.16    0.40
  HS02004799HS02004480 CONDUIT    217.08     0  02:12      0.76    0.27    0.41
  HS02004792HS02004799 CONDUIT    198.39     0  02:12      0.87    0.12    0.33
  HS02004788HS02004792 CONDUIT    115.26     0  02:12      1.00    0.08    0.17
  HS02004785HS02004788 CONDUIT     87.86     0  02:12      0.66    0.66    0.19
  HS02004777HS02004785 CONDUIT     87.82     0  02:11      0.38    0.11    0.33
  HS02004480HS02004478 CONDUIT    256.45     0  02:13      1.18    1.08    0.31
  HS02004479HS02004480 CONDUIT     40.31     0  02:14      0.15    0.04    0.39
  HS02004862HS02004870 CONDUIT     34.82     0  02:15      0.58    0.04    0.09
  HS02004848HS02004852 CONDUIT     14.89     0  02:14      0.39    0.02    0.05
  HS02004856HS02004862 CONDUIT     24.08     0  02:14      0.43    0.02    0.08
  HS02004852HS02004856 CONDUIT     14.84     0  02:15      0.19    0.02    0.11
  HS02004802HS02004478 CONDUIT     83.17     0  02:17      0.38    0.07    0.32
  HS02004478WS02006287 CONDUIT    336.53     0  02:14      1.61    0.09    0.23
  HS02004817HS02004807 CONDUIT     59.99     0  02:18      0.15    0.04    0.59
  HS02004807HS02004802 CONDUIT     82.40     0  02:16      0.32    0.16    0.37
  YS02001759YS02001757 CONDUIT    356.07     0  02:46      0.45    0.25    1.00
  YS02001762YS02001759 CONDUIT    197.61     0  02:46      0.25    0.23    1.00
  YS02001765YS02001762 CONDUIT    192.93     0  02:46      0.25    0.18    1.00
  YS02001770YS02001767 CONDUIT    187.68     0  02:46      0.34    0.74    1.00
  YS02001774YS02001770 CONDUIT     65.37     0  02:11      0.16    0.04    1.00
  YS02001779YS02001774 CONDUIT     49.95     0  02:24      0.10    0.03    1.00
  YS02001649YS02001757 CONDUIT    549.61     0  02:45      0.70    0.33    1.00
  YS02001767YS02001765 CONDUIT    190.60     0  02:46      0.26    0.24    1.00
  YS02006561YS02001783 CONDUIT    564.83     0  02:48      2.05    0.29    0.70
  YS02001783YS02001784 CONDUIT    564.19     0  02:48      1.49    0.78    1.00
  YS02001784YS02001785 CONDUIT    567.62     0  02:48      1.59    1.32    1.00
  YS02001788YS02001790 CONDUIT    575.39     0  02:48      2.14    0.42    1.00
  YS02001790YS02001791 CONDUIT    575.76     0  02:48      2.54    0.63    1.00
  YS02001791YS02001793 CONDUIT    755.77     0  02:43      5.18    0.32    1.00
  YS02001910YS02001907 CONDUIT    185.43     0  02:56      0.49    0.10    0.89
  YS02001786YS02001788 CONDUIT    572.26     0  02:48      2.07    1.10    1.00
  YS02001915YS02001910 CONDUIT    179.79     0  02:42      0.45    0.09    0.68
  YS02001918YS02001915 CONDUIT     64.49     0  03:06      0.44    0.04    0.40
  YS02001923YS02001920 CONDUIT     54.00     0  03:01      0.54    0.02    0.20
  YS02001926YS02001923 CONDUIT     53.96     0  03:01      0.61    0.08    0.17
  YS02001929YS02001926 CONDUIT     53.97     0  03:01      0.66    0.03    0.16
  YS02001920YS02001918 CONDUIT     59.13     0  02:57      0.55    0.06    0.26
  YS02001629YS02163301 CONDUIT    135.53     0  02:58      0.17    0.17    1.00
  YS02001619YS02001622 CONDUIT    171.43     0  02:51      0.77    0.25    1.00
  YS02001622YS02001625 CONDUIT    241.77     0  02:51      0.32    0.13    1.00
  YS02001625YS02001629 CONDUIT    241.23     0  02:51      0.32    0.11    1.00
  YS02163301YS02001633 CONDUIT    134.10     0  02:58      0.17    0.13    1.00
  YS02163601YS02164001 CONDUIT    252.33     0  02:58      0.32    0.22    1.00
  YS02164001YS02001641 CONDUIT    249.56     0  02:58      0.32    0.34    1.00
  YS02001641YS02001644 CONDUIT    249.81     0  02:58      0.32    0.81    1.00
  YS02001647YS02001649 CONDUIT    367.92     0  02:58      0.47    0.19    1.00
  YS02006553YS02006556 CONDUIT    394.23     0  02:56      0.51    0.34    0.97
  YS02006556YS02006558 CONDUIT    407.59     0  02:56      0.52    0.32    0.99
  YSB6556YSB1171       CONDUIT     21.80     0  02:15      0.08    0.02    0.66
  YS02001907YS02006553 CONDUIT    399.46     0  02:56      0.44    0.47    1.00
  YS02006558YS02006561 CONDUIT    597.45     0  02:56      3.00    1.32    0.69
  YS02001633YS02163601 CONDUIT    252.66     0  02:58      0.32    0.27    1.00
  YS02001644YS02001647 CONDUIT    366.64     0  02:58      0.47    0.22    1.00
  YS02001745YS02001748 CONDUIT    265.89     0  02:50      1.58    0.10    0.93
  YS02001748YS02001751 CONDUIT    305.89     0  02:44      1.23    0.15    1.00
  YS02001751YS02001754 CONDUIT    193.47     0  02:45      1.07    0.09    1.00
  YS02001754YS02001757 CONDUIT    197.80     0  02:45      0.33    0.08    1.00
  YS02001882YS02001884 CONDUIT     10.05     0  02:45      0.06    0.01    0.62
  YS02001884YS02001887 CONDUIT     17.98     0  02:04      0.07    0.02    0.71
  YS02001890YS02001895 CONDUIT    209.96     0  02:38      0.38    0.10    0.68
  YS02001895YS02001898 CONDUIT    213.29     0  02:37      0.53    0.37    0.54
  YS02001898YS02001901 CONDUIT    222.94     0  02:43      0.44    0.14    0.62
  YS02001901YS02001904 CONDUIT    224.97     0  02:43      0.41    0.35    0.67
  YS02001904YS02001907 CONDUIT    236.78     0  02:43      0.34    0.08    0.83
  YS02001887YS02001890 CONDUIT    210.99     0  02:40      0.33    0.36    0.77
  YS02001652YS02001649 CONDUIT    226.97     0  02:44      0.38    0.11    1.00
  YS02001655YS02001652 CONDUIT    228.61     0  02:44      1.14    0.11    1.00
  YS02001658YS02001655 CONDUIT    388.55     0  02:46      1.42    0.16    1.00
  YS02001661YS02001658 CONDUIT    496.08     0  03:19      1.65    0.19    1.00
  YS02001664YS02001661 CONDUIT    377.09     0  03:57      1.41    0.12    0.70
  YSB1154YSB6556       CONDUIT     21.33     0  02:12      0.19    0.04    0.55
  YSB1174YSB1171       CONDUIT     19.56     0  02:09      0.08    0.03    0.67
  YSB1171HS02004479    CONDUIT     39.94     0  02:14      0.54    0.03    0.52
  HS02004881HS02006253 CONDUIT     65.86     0  02:14      2.04    0.01    0.22
  YS02001793JiankangQianchi CONDUIT    958.30     0  02:43     13.01    0.08    1.00
  YS02001757CaochengTiaoxuchi CONDUIT    940.57     0  02:52      1.91    0.41    1.00
  WSF200WS02003060     CONDUIT    484.50     0  02:29      1.97    0.11    0.28
  1                    CONDUIT    620.49     0  02:46      2.92    0.22    0.32
  2                    CONDUIT     59.54     0  06:01      4.18    0.14    0.26
  3                    CONDUIT    208.88     0  06:00      7.94    0.33    0.40
  4                    CONDUIT      0.00     0  00:00      0.00    0.00    0.00
  CC-Pump-1            PUMP       200.00     0  07:20              1.00
  CC-Pump-2            PUMP       200.00     0  03:00              1.00
  JK-Pump-1            PUMP       300.00     0  02:30              1.00
  JK-Pump-2            PUMP       300.00     0  02:15              1.00
  XR-Pump-1            PUMP        95.00     0  00:00              1.00
  XR-Pump-2            PUMP        95.00     0  00:50              1.00
  XR-Pump-3            PUMP        94.97     0  04:40              1.00
  XR-Pump-4            PUMP        95.00     0  05:10              1.00
  
  
  ***************************
  Flow Classification Summary
  ***************************
  
  -------------------------------------------------------------------------------------
                      Adjusted    ---------- Fraction of Time in Flow Class ---------- 
                       /Actual         Up    Down  Sub   Sup   Up    Down  Norm  Inlet 
  Conduit               Length    Dry  Dry   Dry   Crit  Crit  Crit  Crit  Ltd   Ctrl  
  -------------------------------------------------------------------------------------
  WS02003066WSF200        1.00   0.05  0.00  0.00  0.00  0.95  0.00  0.00  0.82  0.00
  WS02006287WS02006284    1.00   0.04  0.02  0.00  0.69  0.25  0.00  0.00  0.76  0.00
  WS02006284WS02006280    1.00   0.05  0.00  0.00  0.00  0.00  0.00  0.95  0.00  0.00
  WS02006280WS02006229    1.00   0.05  0.00  0.00  0.00  0.00  0.00  0.95  0.00  0.00
  WS02006229WS02006228    1.00   0.00  0.00  0.00  1.00  0.00  0.00  0.00  0.00  0.00
  WS02006256WS02006235    1.00   0.00  0.00  0.00  1.00  0.00  0.00  0.00  0.00  0.00
  WS02006253WS02006251    1.00   0.03  0.02  0.00  0.95  0.00  0.00  0.00  0.00  0.00
  WS02006252WS02006251    1.00   0.14  0.00  0.00  0.00  0.00  0.86  0.00  0.00  0.00
  WS02006251WS02006249    1.00   0.00  0.00  0.00  1.00  0.00  0.00  0.00  0.33  0.00
  WS02006249WS02006248    1.00   0.00  0.00  0.00  0.82  0.00  0.18  0.00  0.00  0.00
  WS02006248WS02006247    1.00   0.00  0.00  0.00  0.97  0.00  0.00  0.02  0.25  0.00
  WS02006247WS02006245    1.00   0.00  0.00  0.00  0.98  0.00  0.00  0.02  0.00  0.00
  WS02006245WS02006243    1.00   0.01  0.00  0.00  0.94  0.00  0.00  0.05  0.03  0.00
  WS02006243WS02006242    1.00   0.01  0.00  0.00  0.99  0.00  0.00  0.00  0.24  0.00
  WS02006242WS02006240    1.00   0.01  0.00  0.00  0.99  0.00  0.00  0.00  0.00  0.00
  WS02006240WS02006239    1.00   0.01  0.00  0.00  0.96  0.00  0.00  0.04  0.02  0.00
  WS02006239WS02006238    1.00   0.00  0.00  0.00  1.00  0.00  0.00  0.00  0.11  0.00
  WS02006238WS02006235    1.00   0.00  0.00  0.00  1.00  0.00  0.00  0.00  0.00  0.00
  WS02006235WS02006234    1.00   0.00  0.00  0.00  0.97  0.00  0.03  0.00  0.00  0.00
  WS02006234WS02006232    1.00   0.00  0.00  0.00  0.99  0.00  0.00  0.00  0.06  0.00
  WS02006232WS02006231    1.00   0.00  0.00  0.00  0.99  0.00  0.00  0.00  0.00  0.00
  WS02006231WS02006230    1.00   0.01  0.00  0.00  0.33  0.00  0.66  0.00  0.00  0.00
  WS02006230WS02006229    1.00   0.00  0.00  0.00  0.99  0.00  0.00  0.01  0.00  0.00
  WS02006228WS02006109    1.00   0.00  0.00  0.00  1.00  0.00  0.00  0.00  0.00  0.00
  WS02006116WS02004401    1.00   0.03  0.00  0.00  0.97  0.00  0.00  0.00  0.00  0.00
  WS02006115WS02006116    1.00   0.03  0.00  0.00  0.97  0.00  0.00  0.01  0.00  0.00
  WS02006113WS02006111    1.00   0.01  0.00  0.00  0.00  0.98  0.00  0.00  0.16  0.00
  WS02006112WS02006115    1.00   0.02  0.01  0.00  0.97  0.00  0.00  0.00  0.00  0.00
  WS02006111WS02006112    1.00   0.02  0.00  0.00  0.98  0.00  0.00  0.00  0.95  0.00
  WS02006110WS02006113    1.00   0.00  0.01  0.00  0.99  0.00  0.00  0.00  0.00  0.00
  WS02006109WS02006110    1.00   0.00  0.00  0.00  1.00  0.00  0.00  0.00  0.00  0.00
  WS02004411WS02004412    1.00   0.04  0.00  0.00  0.96  0.00  0.00  0.00  0.00  0.00
  WS02004401WS02004402    1.00   0.03  0.00  0.00  0.97  0.00  0.00  0.00  0.00  0.00
  WS02004413WS02003067    1.00   0.04  0.01  0.00  0.00  0.00  0.96  0.00  0.00  0.00
  WS02004412WS02004413    1.00   0.04  0.00  0.00  0.96  0.00  0.00  0.00  0.01  0.00
  WS02004410WS02004411    1.00   0.04  0.00  0.00  0.96  0.00  0.00  0.00  0.00  0.00
  WS02004409WS02004410    1.00   0.04  0.00  0.00  0.96  0.00  0.00  0.00  0.02  0.00
  WS02004407WS02004409    1.00   0.04  0.00  0.00  0.96  0.00  0.00  0.00  0.92  0.00
  WS02004406WS02004407    1.00   0.00  0.04  0.00  0.96  0.00  0.00  0.00  0.00  0.00
  WS02004405WS02004406    1.00   0.00  0.00  0.00  1.00  0.00  0.00  0.00  0.03  0.00
  WS02004404WS02004405    1.00   0.00  0.00  0.00  1.00  0.00  0.00  0.00  0.00  0.00
  WS02004403WS02004404    1.00   0.00  0.03  0.00  0.97  0.00  0.00  0.00  0.00  0.00
  WS02004402WS02004403    1.00   0.03  0.00  0.00  0.97  0.00  0.00  0.00  0.00  0.00
  WS02004139WS02001211    1.00   0.00  0.00  0.00  1.00  0.00  0.00  0.00  0.00  0.00
  WS02004138WS02004139    1.00   0.00  0.00  0.00  1.00  0.00  0.00  0.00  1.00  0.00
  WS02003067WS02003066    1.00   0.04  0.00  0.00  0.95  0.00  0.00  0.00  0.00  0.00
  WS02001213WS02003059    1.00   0.00  0.00  0.00  1.00  0.00  0.00  0.00  0.00  0.00
  WS02001212WS02001213    1.00   0.00  0.00  0.00  0.60  0.00  0.40  0.00  0.00  0.00
  WS02001211WS02001212    1.00   0.00  0.00  0.00  1.00  0.00  0.00  0.00  0.00  0.00
  WS02003072WS02003073    1.00   0.00  0.00  0.00  0.00  0.00  0.00  1.00  0.00  0.00
  WS02003069WS02003072    1.00   0.00  0.00  0.00  1.00  0.00  0.00  0.00  0.68  0.00
  WS02003060WS02003069    1.00   0.00  0.00  0.00  0.98  0.02  0.00  0.00  0.35  0.00
  WS02003059WS02003060    1.00   0.00  0.00  0.00  1.00  0.00  0.00  0.00  0.02  0.00
  HS02004901HS02004770    1.00   0.05  0.00  0.00  0.95  0.00  0.00  0.00  0.02  0.00
  HS02004876HS02004881    1.00   0.00  0.00  0.00  0.97  0.03  0.00  0.00  0.00  0.00
  HS02004870HS02004876    1.00   0.00  0.00  0.00  1.00  0.00  0.00  0.00  0.95  0.00
  HS02004842HS02004848    1.00   0.00  0.05  0.00  0.95  0.00  0.00  0.00  0.67  0.00
  HS02004837HS02004842    1.00   0.00  0.00  0.00  1.00  0.00  0.00  0.00  0.11  0.00
  HS02004830HS02004837    1.00   0.00  0.00  0.00  1.00  0.00  0.00  0.00  0.99  0.00
  HS02004824HS02004830    1.00   0.00  0.00  0.00  1.00  0.00  0.00  0.00  0.00  0.00
  HS02004817HS02004824    1.00   0.00  0.00  0.00  1.00  0.00  0.00  0.00  1.00  0.00
  HS02004770HS02004777    1.00   0.00  0.05  0.00  0.95  0.00  0.00  0.00  0.07  0.00
  HS02004799HS02004480    1.00   0.00  0.01  0.00  0.94  0.00  0.05  0.00  0.00  0.00
  HS02004792HS02004799    1.00   0.00  0.00  0.00  1.00  0.00  0.00  0.00  0.98  0.00
  HS02004788HS02004792    1.00   0.00  0.00  0.00  1.00  0.00  0.00  0.00  0.98  0.00
  HS02004785HS02004788    1.00   0.00  0.00  0.00  1.00  0.00  0.00  0.00  0.00  0.00
  HS02004777HS02004785    1.00   0.00  0.00  0.00  1.00  0.00  0.00  0.00  0.20  0.00
  HS02004480HS02004478    1.00   0.05  0.00  0.00  0.72  0.00  0.00  0.23  0.00  0.00
  HS02004479HS02004480    1.00   0.01  0.00  0.00  0.99  0.00  0.00  0.00  0.16  0.00
  HS02004862HS02004870    1.00   0.00  0.00  0.00  1.00  0.00  0.00  0.00  0.05  0.00
  HS02004848HS02004852    1.00   0.05  0.00  0.00  0.95  0.00  0.00  0.00  0.72  0.00
  HS02004856HS02004862    1.00   0.00  0.07  0.00  0.93  0.00  0.00  0.00  0.75  0.00
  HS02004852HS02004856    1.00   0.05  0.01  0.00  0.95  0.00  0.00  0.00  0.83  0.00
  HS02004802HS02004478    1.00   0.05  0.01  0.00  0.95  0.00  0.00  0.00  0.01  0.00
  HS02004478WS02006287    1.00   0.06  0.00  0.00  0.83  0.11  0.00  0.00  0.73  0.00
  HS02004817HS02004807    1.00   0.00  0.05  0.00  0.95  0.00  0.00  0.00  0.00  0.00
  HS02004807HS02004802    1.00   0.05  0.00  0.00  0.95  0.00  0.00  0.00  0.01  0.00
  YS02001759YS02001757    1.00   0.00  0.00  0.00  1.00  0.00  0.00  0.00  0.17  0.00
  YS02001762YS02001759    1.00   0.00  0.00  0.00  1.00  0.00  0.00  0.00  0.04  0.00
  YS02001765YS02001762    1.00   0.00  0.00  0.00  1.00  0.00  0.00  0.00  0.22  0.00
  YS02001770YS02001767    1.00   0.00  0.00  0.00  1.00  0.00  0.00  0.00  0.00  0.00
  YS02001774YS02001770    1.00   0.00  0.05  0.00  0.95  0.00  0.00  0.00  0.06  0.00
  YS02001779YS02001774    1.00   0.00  0.00  0.00  1.00  0.00  0.00  0.00  0.26  0.00
  YS02001649YS02001757    1.00   0.00  0.00  0.00  1.00  0.00  0.00  0.00  0.19  0.00
  YS02001767YS02001765    1.00   0.00  0.00  0.00  1.00  0.00  0.00  0.00  0.01  0.00
  YS02006561YS02001783    1.00   0.07  0.00  0.00  0.46  0.47  0.00  0.00  0.67  0.00
  YS02001783YS02001784    1.00   0.00  0.07  0.00  0.93  0.00  0.00  0.00  0.00  0.00
  YS02001784YS02001785    1.00   0.00  0.00  0.00  1.00  0.00  0.00  0.00  0.25  0.00
  YS02001788YS02001790    1.00   0.00  0.00  0.00  0.71  0.29  0.00  0.00  0.45  0.00
  YS02001790YS02001791    1.00   0.00  0.00  0.00  0.71  0.29  0.00  0.00  0.17  0.00
  YS02001791YS02001793    1.00   0.00  0.00  0.00  0.79  0.21  0.00  0.00  0.04  0.00
  YS02001910YS02001907    1.00   0.00  0.00  0.00  0.99  0.00  0.00  0.01  0.13  0.00
  YS02001786YS02001788    1.00   0.00  0.00  0.00  0.62  0.38  0.00  0.00  0.00  0.00
  YS02001915YS02001910    1.00   0.00  0.00  0.00  1.00  0.00  0.00  0.00  0.23  0.00
  YS02001918YS02001915    1.00   0.00  0.00  0.00  1.00  0.00  0.00  0.00  0.66  0.00
  YS02001923YS02001920    1.00   0.00  0.00  0.00  1.00  0.00  0.00  0.00  1.00  0.00
  YS02001926YS02001923    1.00   0.00  0.03  0.00  0.00  0.00  0.97  0.00  0.00  0.00
  YS02001929YS02001926    1.00   0.00  0.05  0.00  0.95  0.00  0.00  0.00  0.87  0.00
  YS02001920YS02001918    1.00   0.00  0.00  0.00  1.00  0.00  0.00  0.00  0.00  0.00
  YS02001629YS02163301    1.00   0.06  0.00  0.00  0.93  0.00  0.00  0.00  0.00  0.00
  YS02001619YS02001622    1.00   0.05  0.00  0.00  0.95  0.00  0.00  0.00  0.00  0.00
  YS02001622YS02001625    1.00   0.05  0.00  0.00  0.95  0.00  0.00  0.00  0.12  0.00
  YS02001625YS02001629    1.00   0.05  0.03  0.00  0.92  0.00  0.01  0.00  0.00  0.00
  YS02163301YS02001633    1.00   0.00  0.06  0.00  0.94  0.00  0.00  0.00  0.00  0.00
  YS02163601YS02164001    1.00   0.00  0.04  0.00  0.96  0.00  0.00  0.00  0.00  0.00
  YS02164001YS02001641    1.00   0.00  0.03  0.00  0.96  0.00  0.00  0.00  0.07  0.00
  YS02001641YS02001644    1.00   0.00  0.00  0.00  1.00  0.00  0.00  0.00  0.00  0.00
  YS02001647YS02001649    1.00   0.00  0.07  0.00  0.93  0.00  0.00  0.00  0.01  0.00
  YS02006553YS02006556    1.00   0.00  0.00  0.00  1.00  0.00  0.00  0.00  0.03  0.00
  YS02006556YS02006558    1.00   0.00  0.00  0.00  1.00  0.00  0.00  0.00  0.00  0.00
  YSB6556YSB1171          1.00   0.02  0.03  0.00  0.96  0.00  0.00  0.00  0.00  0.00
  YS02001907YS02006553    1.00   0.00  0.00  0.00  1.00  0.00  0.00  0.00  0.00  0.00
  YS02006558YS02006561    1.00   0.07  0.00  0.00  0.00  0.93  0.00  0.00  0.59  0.00
  YS02001633YS02163601    1.00   0.00  0.00  0.00  1.00  0.00  0.00  0.00  0.19  0.00
  YS02001644YS02001647    1.00   0.00  0.07  0.00  0.93  0.00  0.00  0.00  0.00  0.00
  YS02001745YS02001748    1.00   0.00  0.00  0.00  0.89  0.00  0.00  0.10  0.04  0.00
  YS02001748YS02001751    1.00   0.00  0.00  0.00  0.98  0.02  0.00  0.00  0.23  0.00
  YS02001751YS02001754    1.00   0.00  0.00  0.00  0.92  0.00  0.00  0.08  0.01  0.00
  YS02001754YS02001757    1.00   0.00  0.00  0.00  1.00  0.00  0.00  0.00  0.26  0.00
  YS02001882YS02001884    1.00   0.06  0.00  0.00  0.94  0.00  0.00  0.00  0.00  0.00
  YS02001884YS02001887    1.00   0.03  0.01  0.00  0.96  0.00  0.00  0.00  0.00  0.00
  YS02001890YS02001895    1.00   0.00  0.06  0.00  0.93  0.00  0.00  0.00  0.00  0.00
  YS02001895YS02001898    1.00   0.07  0.00  0.00  0.93  0.00  0.01  0.00  0.00  0.00
  YS02001898YS02001901    1.00   0.06  0.00  0.00  0.93  0.00  0.00  0.00  0.02  0.00
  YS02001901YS02001904    1.00   0.06  0.00  0.00  0.94  0.00  0.00  0.00  0.00  0.00
  YS02001904YS02001907    1.00   0.00  0.06  0.00  0.94  0.00  0.00  0.00  0.00  0.00
  YS02001887YS02001890    1.00   0.00  0.00  0.00  0.99  0.00  0.01  0.00  0.00  0.00
  YS02001652YS02001649    1.00   0.00  0.00  0.00  1.00  0.00  0.00  0.00  0.25  0.00
  YS02001655YS02001652    1.00   0.00  0.00  0.00  0.92  0.00  0.00  0.08  0.01  0.00
  YS02001658YS02001655    1.00   0.00  0.06  0.00  0.92  0.03  0.00  0.00  0.07  0.00
  YS02001661YS02001658    1.00   0.06  0.00  0.00  0.89  0.05  0.00  0.00  0.04  0.00
  YS02001664YS02001661    1.00   0.05  0.00  0.00  0.86  0.09  0.00  0.00  0.30  0.00
  YSB1154YSB6556          1.00   0.04  0.00  0.00  0.96  0.00  0.00  0.00  0.02  0.00
  YSB1174YSB1171          1.00   0.03  0.01  0.00  0.96  0.00  0.00  0.00  0.00  0.00
  YSB1171HS02004479       1.00   0.01  0.00  0.00  0.97  0.00  0.00  0.01  0.13  0.00
  HS02004881HS02006253    1.00   0.02  0.00  0.00  0.57  0.03  0.00  0.37  0.42  0.00
  YS02001793JiankangQianchi    1.00   0.00  0.00  0.00  0.93  0.07  0.00  0.00  0.26  0.00
  YS02001757CaochengTiaoxuchi    1.00   0.00  0.08  0.00  0.92  0.00  0.00  0.00  0.00  0.00
  WSF200WS02003060        1.00   0.00  0.05  0.00  0.17  0.78  0.00  0.00  0.25  0.00
  1                       1.00   0.00  0.00  0.00  0.00  1.00  0.00  0.00  0.30  0.00
  2                       1.00   0.89  0.00  0.00  0.00  0.11  0.00  0.00  0.02  0.00
  3                       1.00   0.52  0.00  0.00  0.00  0.48  0.00  0.00  0.15  0.00
  4                       1.00   1.00  0.00  0.00  0.00  0.00  0.00  0.00  0.00  0.00
  
  
  *************************
  Conduit Surcharge Summary
  *************************
  
  ----------------------------------------------------------------------------
                                                           Hours        Hours 
                         --------- Hours Full --------   Above Full   Capacity
  Conduit                Both Ends  Upstream  Dnstream   Normal Flow   Limited
  ----------------------------------------------------------------------------
  WS02006229WS02006228        0.84      1.08      0.84      2.07         0.84
  WS02006256WS02006235        5.72      5.72      6.66      2.64         0.01
  WS02006252WS02006251        0.25      0.25      0.70      0.58         0.01
  WS02006251WS02006249        0.01      0.01      0.01      0.25         0.01
  WS02006249WS02006248        0.01      0.01      0.01      2.82         0.01
  WS02006247WS02006245        0.01      0.01      0.01      3.42         0.01
  WS02006245WS02006243        0.01      0.01      0.01      0.04         0.01
  WS02006243WS02006242        0.01      0.01      0.08      0.01         0.01
  WS02006242WS02006240        0.01      0.01      0.24      0.73         0.01
  WS02006240WS02006239        0.01      0.01      0.01      0.06         0.01
  WS02006239WS02006238        0.17      0.17      0.19      0.07         0.01
  WS02006238WS02006235        0.13      0.13      0.28      0.01         0.01
  WS02006235WS02006234        0.01      0.01      0.03      5.66         0.01
  WS02006234WS02006232        0.01      0.01      0.28      0.01         0.01
  WS02006232WS02006231        0.01      0.01      0.28      0.01         0.01
  WS02006231WS02006230        0.01      0.01      0.01      5.80         0.01
  WS02006230WS02006229        1.51      1.83      1.51      5.96         1.51
  WS02006228WS02006109        0.98      1.36      0.98      3.41         0.98
  WS02006111WS02006112        0.01      0.01      2.24      0.01         0.01
  WS02006110WS02006113        0.01      0.01      1.25      0.01         0.01
  WS02006109WS02006110        0.01      0.01      1.36      0.01         0.01
  WS02004404WS02004405        0.01      0.01      0.01      5.67         0.01
  WS02003072WS02003073        0.01      0.01      0.01      1.31         0.01
  HS02004480HS02004478        0.01      0.01      0.01      0.15         0.01
  YS02001759YS02001757        5.49      5.49      5.53      0.01         0.01
  YS02001762YS02001759        5.48      5.48      5.49      0.01         0.01
  YS02001765YS02001762        5.46      5.46      5.48      0.01         0.01
  YS02001770YS02001767        5.43      5.43      5.43      0.01         0.65
  YS02001774YS02001770        5.42      5.42      5.48      0.01         0.01
  YS02001779YS02001774        5.16      5.16      5.48      0.01         0.01
  YS02001649YS02001757        5.48      5.48      5.53      0.01         0.01
  YS02001767YS02001765        5.43      5.43      5.46      0.01         0.01
  YS02006561YS02001783        0.01      0.01      0.01      0.01         0.01
  YS02001783YS02001784        0.01      0.01      0.02      0.01         0.01
  YS02001784YS02001785        0.01      0.02      0.01      0.97         0.01
  YS02001788YS02001790        0.01      0.01      2.71      0.01         0.01
  YS02001790YS02001791        2.71      2.71      3.31      0.01         0.01
  YS02001791YS02001793        3.31      3.31      4.55      0.01         0.01
  YS02001786YS02001788        0.01      0.01      0.01      0.43         0.01
  YS02001629YS02163301        5.43      5.43      5.43      0.01         0.01
  YS02001619YS02001622        4.58      4.58      4.70      0.01         0.02
  YS02001622YS02001625        4.70      4.70      5.39      0.01         0.01
  YS02001625YS02001629        4.63      4.63      5.39      0.01         0.01
  YS02163301YS02001633        5.43      5.43      5.46      0.01         0.01
  YS02163601YS02164001        5.45      5.45      5.47      0.01         0.01
  YS02164001YS02001641        5.45      5.45      5.47      0.01         0.02
  YS02001641YS02001644        5.47      5.47      5.47      0.01         0.84
  YS02001647YS02001649        5.34      5.34      5.48      0.01         0.01
  YS02006553YS02006556        0.01      0.01      0.07      0.01         0.01
  YS02006556YS02006558        0.01      0.01      0.31      0.01         0.01
  YS02001907YS02006553        0.99      0.99      1.19      0.01         0.01
  YS02006558YS02006561        0.01      0.01      0.01      0.83         0.01
  YS02001633YS02163601        5.44      5.44      5.47      0.01         0.01
  YS02001644YS02001647        5.34      5.34      5.47      0.01         0.01
  YS02001745YS02001748        0.01      0.01      4.25      0.01         0.01
  YS02001748YS02001751        4.34      4.34      4.67      0.01         0.01
  YS02001751YS02001754        4.67      4.67      5.25      0.01         0.01
  YS02001754YS02001757        5.32      5.32      5.53      0.01         0.01
  YS02001904YS02001907        0.01      0.01      0.10      0.01         0.01
  YS02001652YS02001649        5.37      5.37      5.48      0.01         0.01
  YS02001655YS02001652        4.74      4.74      5.30      0.01         0.01
  YS02001658YS02001655        4.27      4.27      4.74      0.01         0.01
  YS02001661YS02001658        0.02      0.02      4.27      0.01         0.01
  YS02001664YS02001661        0.01      0.01      0.43      0.01         0.01
  YS02001793JiankangQianchi        4.17      4.17      5.75      0.01         0.01
  YS02001757CaochengTiaoxuchi        4.37      4.37      5.53      0.01         0.01
  
  
  ***************
  Pumping Summary
  ***************
  
  ---------------------------------------------------------------------------------------------------------
                                                  Min       Avg       Max     Total     Power    % Time Off
                        Percent   Number of      Flow      Flow      Flow    Volume     Usage    Pump Curve
  Pump                 Utilized   Start-Ups       LPS       LPS       LPS  10^6 ltr     Kw-hr    Low   High
  ---------------------------------------------------------------------------------------------------------
  CC-Pump-1               42.55           6      0.00    116.63    200.00     1.380      1.80    0.0    3.4
  CC-Pump-2               38.31           3      0.00    150.35    200.00     1.560      1.70    0.0    0.0
  JK-Pump-1               31.90           6      0.00    164.34    300.00     1.440      9.60    0.0    0.0
  JK-Pump-2               31.91           7      0.00    158.54    300.00     1.173     11.13    0.0    0.0
  XR-Pump-1               65.96           8      0.00     61.34     95.00     1.169      6.02    0.0    0.0
  XR-Pump-2               19.14           4      0.00     50.29     95.00     0.285      1.27    0.0    0.0
  XR-Pump-3                8.50           2      0.00     49.00     94.97     0.114      0.51    0.0    0.0
  XR-Pump-4               44.67           9      0.00     51.70     95.00     0.655      2.91    0.0    0.0
  

  Analysis begun on:  Wed Jan  5 21:47:47 2022
  Analysis ended on:  Wed Jan  5 21:47:50 2022
  Total elapsed time: 00:00:03