
  EPA STORM WATER MANAGEMENT MODEL - VERSION 5.1 (Build 5.3.0.dev0)
  --------------------------------------------------------------

  WARNING 04: minimum elevation drop used for Conduit WS02004404WS02004405
  WARNING 03: negative offset ignored for Link YS02001904YS02001907
  
  *********************************************************
  NOTE: The summary statistics displayed in this report are
  based on results found at every computational time step,  
  not just on results from each reporting time step.
  *********************************************************
  
  ****************
  Analysis Options
  ****************
  Flow Units ............... LPS
  Process Models:
    Rainfall/Runoff ........ YES
    RDII ................... NO
    Snowmelt ............... NO
    Groundwater ............ NO
    Flow Routing ........... YES
    Ponding Allowed ........ NO
    Water Quality .......... NO
  Infiltration Method ...... HORTON
  Flow Routing Method ...... DYNWAVE
  Surcharge Method ......... EXTRAN
  Starting Date ............ 08/28/2015 08:00:00
  Ending Date .............. 08/28/2015 15:50:00
  Antecedent Dry Days ...... 8.0
  Report Time Step ......... 00:01:00
  Wet Time Step ............ 00:01:00
  Dry Time Step ............ 00:01:00
  Routing Time Step ........ 5.00 sec
  Variable Time Step ....... YES
  Maximum Trials ........... 8
  Number of Threads ........ 4
  Head Tolerance ........... 0.001500 m
  
  
  **************************        Volume         Depth
  Runoff Quantity Continuity     hectare-m            mm
  **************************     ---------       -------
  Total Precipitation ......         2.221         4.862
  Evaporation Loss .........         0.000         0.000
  Infiltration Loss ........         0.552         1.209
  Surface Runoff ...........         0.830         1.818
  Final Storage ............         0.838         1.836
  Continuity Error (%) .....        -0.018
  
  
  **************************        Volume        Volume
  Flow Routing Continuity        hectare-m      10^6 ltr
  **************************     ---------     ---------
  Dry Weather Inflow .......         0.616         6.165
  Wet Weather Inflow .......         0.830         8.297
  Groundwater Inflow .......         0.000         0.000
  RDII Inflow ..............         0.000         0.000
  External Inflow ..........         0.102         1.024
  External Outflow .........         0.577         5.766
  Flooding Loss ............         0.596         5.963
  Evaporation Loss .........         0.000         0.000
  Exfiltration Loss ........         0.000         0.000
  Initial Stored Volume ....         0.076         0.761
  Final Stored Volume ......         0.453         4.533
  Continuity Error (%) .....        -0.102
  
  
  *************************
  Highest Continuity Errors
  *************************
  Node HS02004842 (32.87%)
  Node YS02001884 (27.28%)
  Node YS02001774 (16.60%)
  Node YSB1171 (8.78%)
  Node YS02001625 (7.54%)
  
  
  ***************************
  Time-Step Critical Elements
  ***************************
  Link WS02006252WS02006251 (59.88%)
  Link 3 (19.26%)
  Link WS02006280WS02006229 (11.38%)
  Link WS02006238WS02006235 (2.48%)
  
  
  ********************************
  Highest Flow Instability Indexes
  ********************************
  Link WS02006113WS02006111 (45)
  Link YS02164001YS02001641 (7)
  Link YS02001629YS02163301 (7)
  Link YS02163601YS02164001 (7)
  Link YS02163301YS02001633 (7)
  
  
  *************************
  Routing Time Step Summary
  *************************
  Minimum Time Step           :     0.20 sec
  Average Time Step           :     1.38 sec
  Maximum Time Step           :     5.00 sec
  Percent in Steady State     :    -0.00
  Average Iterations per Step :     2.36
  Percent Not Converging      :     3.65
  
  
  ***************************
  Subcatchment Runoff Summary
  ***************************
  
  ------------------------------------------------------------------------------------------------------------------------------
                            Total      Total      Total      Total     Imperv       Perv      Total       Total     Peak  Runoff
                           Precip      Runon       Evap      Infil     Runoff     Runoff     Runoff      Runoff   Runoff   Coeff
  Subcatchment                 mm         mm         mm         mm         mm         mm         mm    10^6 ltr      LPS
  ------------------------------------------------------------------------------------------------------------------------------
  sub0                       4.86       0.00       0.00       0.34       3.26       0.00       3.26        0.00     1.06   0.670
  sub1                       4.86       0.00       0.00       0.53       3.07       0.00       3.07        0.02     5.41   0.632
  sub2                       4.86       0.00       0.00       1.80       2.16       0.00       2.16        0.02     4.75   0.444
  sub3                       4.86       0.00       0.00       1.80       2.13       0.00       2.13        0.05     9.71   0.437
  sub4                       4.86       0.00       0.00       0.53       2.94       0.00       2.94        0.06    10.83   0.605
  sub5                       4.86       0.00       0.00       0.34       3.21       0.00       3.21        0.04     9.61   0.660
  sub7                       4.86       0.00       0.00       0.44       3.17       0.00       3.17        0.01     3.43   0.652
  sub8                       4.86       0.00       0.00       0.44       3.16       0.00       3.16        0.02     6.02   0.650
  sub9                       4.86       0.00       0.00       0.44       3.16       0.00       3.16        0.02     4.46   0.650
  sub10                      4.86       0.00       0.00       0.39       3.18       0.00       3.18        0.04     9.61   0.655
  sub11                      4.86       0.00       0.00       0.39       3.20       0.00       3.20        0.04    11.35   0.658
  sub12                      4.86       0.00       0.00       0.63       3.04       0.00       3.04        0.03     9.73   0.626
  sub14                      4.86       0.00       0.00       0.44       3.16       0.00       3.16        0.03     8.71   0.649
  sub15                      4.86       0.00       0.00       1.46       2.43       0.00       2.43        0.04    11.80   0.499
  sub16                      4.86       0.00       0.00       1.60       2.34       0.00       2.34        0.02     8.52   0.481
  sub17                      4.86       0.00       0.00       1.56       2.37       0.00       2.37        0.02     6.86   0.488
  sub22                      4.86       0.00       0.00       2.09       1.98       0.00       1.98        0.13    38.87   0.408
  sub23                      4.86       0.00       0.00       1.80       2.19       0.00       2.19        0.10    33.14   0.451
  sub60                      4.86       0.00       0.00       0.58       2.00       0.00       2.00        0.61    53.29   0.411
  sub61                      4.86       0.00       0.00       0.83       2.18       0.00       2.18        0.67    67.47   0.448
  sub62                      4.86       0.00       0.00       0.39       2.32       0.00       2.32        0.71    68.82   0.477
  sub63                      4.86       0.00       0.00       1.41       1.95       0.00       1.95        0.59    63.15   0.401
  sub64                      4.86       0.00       0.00       0.73       1.91       0.00       1.91        0.58    50.55   0.392
  sub65                      4.86       0.00       0.00       0.63       1.93       0.00       1.93        0.59    51.23   0.397
  sub66                      4.86       0.00       0.00       1.41       1.67       0.00       1.67        0.51    46.56   0.344
  sub67                      4.86       0.00       0.00       0.39       2.59       0.00       2.59        0.80    88.93   0.533
  sub68                      4.86       0.00       0.00       0.68       2.33       0.00       2.33        0.72    74.73   0.478
  sub69                      4.86       0.00       0.00       0.73       2.55       0.00       2.55        0.60    74.84   0.525
  sub70                      4.86       2.60       0.00       2.54       3.02       0.00       3.02        0.69    57.41   0.405
  sub71                      4.86       0.00       0.00       0.39       2.21       0.00       2.21        0.52    47.92   0.454
  sub72                      4.86       0.00       0.00       0.34       1.50       0.00       1.50        0.31    21.96   0.308
  sub73                      4.86       2.94       0.00       2.65       2.99       0.00       2.99        0.70    48.96   0.384
  sub74                      4.86       0.00       0.00       3.65       0.77       0.00       0.77        0.31    41.89   0.159
  
  
  ******************
  Node Depth Summary
  ******************
  
  ---------------------------------------------------------------------------------
                                 Average  Maximum  Maximum  Time of Max    Reported
                                   Depth    Depth      HGL   Occurrence   Max Depth
  Node                 Type       Meters   Meters   Meters  days hr:min      Meters
  ---------------------------------------------------------------------------------
  WS02001211           JUNCTION     0.43     0.61     5.45     0  00:30        0.61
  WS02001212           JUNCTION     0.20     0.34     5.40     0  00:30        0.34
  WS02001213           JUNCTION     0.40     0.51     5.27     0  00:31        0.51
  WS02003069           JUNCTION     0.25     0.31     4.90     0  05:06        0.31
  WS02003072           JUNCTION     0.31     0.39     4.76     0  05:07        0.39
  WS02003073           JUNCTION     0.17     0.22     4.29     0  05:08        0.22
  WS02003060           JUNCTION     0.22     0.28     5.22     0  05:06        0.28
  WS02003066           JUNCTION     0.16     0.24     5.80     0  05:05        0.24
  WS02003059           JUNCTION     0.47     0.56     5.25     0  00:31        0.56
  WS02003067           JUNCTION     0.43     0.60     5.92     0  05:04        0.60
  WS02004401           JUNCTION     0.49     0.70     6.70     0  05:00        0.70
  WS02004402           JUNCTION     0.52     0.73     6.69     0  05:00        0.73
  WS02004403           JUNCTION     0.55     0.75     6.68     0  05:01        0.75
  WS02004404           JUNCTION     0.63     0.83     6.68     0  05:01        0.83
  WS02004406           JUNCTION     0.64     0.84     6.67     0  05:01        0.84
  WS02004409           JUNCTION     0.30     0.50     6.27     0  05:03        0.49
  WS02004410           JUNCTION     0.32     0.52     6.24     0  05:03        0.52
  WS02004411           JUNCTION     0.35     0.54     6.22     0  05:04        0.54
  WS02004412           JUNCTION     0.37     0.56     6.20     0  05:04        0.55
  WS02004413           JUNCTION     0.53     0.72     6.19     0  05:04        0.72
  WS02004405           JUNCTION     0.62     0.83     6.68     0  05:01        0.83
  WS02006109           JUNCTION     0.55     0.81     7.43     0  04:55        0.81
  WS02006110           JUNCTION     0.56     0.80     7.39     0  04:56        0.80
  WS02006111           JUNCTION     0.14     0.24     6.95     0  04:56        0.24
  WS02006112           JUNCTION     0.63     0.87     6.75     0  04:59        0.87
  WS02006113           JUNCTION     0.21     0.38     7.27     0  04:56        0.38
  WS02006115           JUNCTION     0.37     0.58     6.72     0  05:00        0.58
  WS02006116           JUNCTION     0.46     0.67     6.71     0  05:00        0.67
  WS02006230           JUNCTION     0.46     0.81     7.55     0  04:55        0.81
  WS02006231           JUNCTION     0.28     0.55     7.68     0  04:55        0.55
  WS02006232           JUNCTION     0.40     0.70     7.74     0  04:55        0.70
  WS02006234           JUNCTION     0.30     0.64     7.79     0  04:54        0.64
  WS02006235           JUNCTION     0.33     0.67     7.84     0  04:53        0.67
  WS02006238           JUNCTION     0.35     0.70     7.85     0  04:53        0.70
  WS02006240           JUNCTION     0.26     0.62     7.91     0  04:53        0.62
  WS02006242           JUNCTION     0.32     0.68     7.95     0  04:53        0.68
  WS02006243           JUNCTION     0.22     0.57     7.99     0  04:53        0.57
  WS02006245           JUNCTION     0.22     0.54     8.03     0  04:52        0.54
  WS02006247           JUNCTION     0.24     0.57     8.07     0  04:52        0.56
  WS02006248           JUNCTION     0.20     0.51     8.10     0  04:51        0.51
  WS02006249           JUNCTION     0.24     0.55     8.15     0  04:51        0.55
  WS02006239           JUNCTION     0.31     0.67     7.88     0  04:53        0.67
  WS02006251           JUNCTION     0.23     0.57     8.24     0  04:50        0.57
  WS02006252           JUNCTION     0.21     0.59     8.83     0  04:50        0.58
  WS02006253           JUNCTION     0.26     0.61     8.25     0  04:50        0.59
  WS02006256           JUNCTION     0.70     1.15     8.09     0  00:00        1.11
  WS02004138           JUNCTION     0.06     0.14     7.39     0  00:20        0.14
  WS02004407           JUNCTION     0.14     0.24     6.55     0  05:01        0.23
  WS02006228           JUNCTION     0.52     0.82     7.47     0  04:55        0.81
  WS02006229           JUNCTION     0.49     0.79     7.49     0  04:55        0.79
  WS02006280           JUNCTION     0.04     0.13     8.40     0  02:21        0.13
  WS02006284           JUNCTION     0.33     0.45     8.85     0  02:21        0.45
  WS02006287           JUNCTION     0.06     0.18     9.14     0  02:21        0.18
  WSF200               JUNCTION     0.13     0.22     5.45     0  05:04        0.22
  HS02004901           JUNCTION     0.09     0.20    10.03     0  02:19        0.20
  HS02004881           JUNCTION     0.00     0.02     9.05     0  02:20        0.02
  HS02004876           JUNCTION     0.03     0.09     9.12     0  02:20        0.09
  HS02004870           JUNCTION     0.01     0.03     9.32     0  02:21        0.03
  HS02004862           JUNCTION     0.01     0.04     9.42     0  02:22        0.04
  HS02004856           JUNCTION     0.07     0.10     9.52     0  02:21        0.10
  HS02004852           JUNCTION     0.00     0.02     9.53     0  02:22        0.02
  HS02004848           JUNCTION     0.00     0.02     9.62     0  02:20        0.02
  HS02004842           JUNCTION     0.32     0.35     9.62     0  02:20        0.35
  HS02004837           JUNCTION     0.02     0.04     9.62     0  02:20        0.04
  HS02004830           JUNCTION     0.03     0.05     9.52     0  02:20        0.05
  HS02004824           JUNCTION     0.02     0.03     9.44     0  02:24        0.03
  HS02004817           JUNCTION     0.40     0.50     9.35     0  02:21        0.50
  HS02004807           JUNCTION     0.10     0.18     9.35     0  02:21        0.18
  HS02004802           JUNCTION     0.14     0.21     9.34     0  02:21        0.21
  HS02004799           JUNCTION     0.08     0.22     9.43     0  02:19        0.22
  HS02004792           JUNCTION     0.02     0.08     9.60     0  02:19        0.08
  HS02004788           JUNCTION     0.01     0.06     9.96     0  02:20        0.06
  HS02004785           JUNCTION     0.02     0.11    10.01     0  02:20        0.11
  HS02004777           JUNCTION     0.12     0.23    10.03     0  02:19        0.23
  HS02004770           JUNCTION     0.09     0.20    10.03     0  02:19        0.20
  HS02004480           JUNCTION     0.05     0.17     9.41     0  02:20        0.17
  HS02004479           JUNCTION     0.08     0.21     9.41     0  02:20        0.21
  HS02004478           JUNCTION     0.04     0.11     9.33     0  02:21        0.11
  YS02001745           JUNCTION     0.15     0.27     7.79     0  07:34        0.27
  YS02001748           JUNCTION     0.48     0.71     7.78     0  07:12        0.70
  YS02001751           JUNCTION     0.65     0.91     7.79     0  07:13        0.91
  YS02001754           JUNCTION     0.89     1.18     7.79     0  06:49        1.18
  YS02001762           JUNCTION     1.08     1.43     7.83     0  05:49        1.38
  YS02001765           JUNCTION     1.03     1.40     7.85     0  05:49        1.34
  YS02001767           JUNCTION     1.00     1.39     7.88     0  05:49        1.30
  YS02001770           JUNCTION     0.99     1.43     7.93     0  05:49        1.31
  YS02001774           JUNCTION     1.06     1.52     7.94     0  05:49        1.39
  YS02001779           JUNCTION     0.82     1.28     7.97     0  05:49        1.13
  YS02001882           JUNCTION     0.22     0.38     7.10     0  02:57        0.38
  YS02001884           JUNCTION     0.31     0.48     7.10     0  02:57        0.48
  YS02001759           JUNCTION     1.11     1.44     7.80     0  06:57        1.42
  YS02001887           JUNCTION     0.39     0.56     7.10     0  02:57        0.56
  YS02001890           JUNCTION     0.42     0.59     7.09     0  02:58        0.59
  YS02001898           JUNCTION     0.20     0.34     7.08     0  02:58        0.34
  YS02001901           JUNCTION     0.31     0.47     7.08     0  02:59        0.47
  YS02001904           JUNCTION     0.29     0.45     7.08     0  02:59        0.45
  YS02001907           JUNCTION     0.61     0.79     7.08     0  02:59        0.79
  YS02001910           JUNCTION     0.41     0.57     7.08     0  02:59        0.57
  YS02001915           JUNCTION     0.21     0.36     7.08     0  02:59        0.36
  YS02001918           JUNCTION     0.06     0.08     7.15     0  03:04        0.08
  YS02001619           JUNCTION     0.61     0.86     7.78     0  06:55        0.85
  YS02001629           JUNCTION     0.94     1.24     7.79     0  06:54        1.24
  YS02001641           JUNCTION     1.04     1.36     7.80     0  06:50        1.35
  YS02001644           JUNCTION     1.05     1.37     7.80     0  06:50        1.35
  YS02001652           JUNCTION     0.90     1.19     7.79     0  07:15        1.19
  YS02001655           JUNCTION     0.68     0.94     7.79     0  07:14        0.94
  YS02001920           JUNCTION     0.15     0.18     7.19     0  03:03        0.18
  YS02001923           JUNCTION     0.05     0.07     7.33     0  03:02        0.07
  YS02001926           JUNCTION     0.12     0.15     7.60     0  03:02        0.15
  YS02001929           JUNCTION     0.05     0.07     7.77     0  03:01        0.07
  YS02001658           JUNCTION     0.43     0.64     7.78     0  06:57        0.64
  YS02001661           JUNCTION     0.24     0.38     7.78     0  06:52        0.38
  YS02001664           JUNCTION     0.05     0.10     8.02     0  02:49        0.10
  YS02001622           JUNCTION     0.63     0.88     7.78     0  06:56        0.88
  YS02001633           JUNCTION     1.03     1.35     7.80     0  06:50        1.33
  YS02001649           JUNCTION     1.08     1.40     7.79     0  06:57        1.39
  YS02001757           JUNCTION     1.20     1.53     7.79     0  06:57        1.52
  YS02001895           JUNCTION     0.19     0.34     7.09     0  02:58        0.34
  YS02001625           JUNCTION     0.90     1.18     7.78     0  06:57        1.17
  YS02163301           JUNCTION     0.97     1.28     7.80     0  06:49        1.27
  YS02163601           JUNCTION     1.08     1.40     7.80     0  06:50        1.39
  YS02164001           JUNCTION     1.02     1.35     7.80     0  06:50        1.33
  YS02001647           JUNCTION     0.89     1.18     7.79     0  06:50        1.17
  YSB1154              JUNCTION     0.22     0.35     9.41     0  02:20        0.35
  YSB6556              JUNCTION     0.11     0.24     9.41     0  02:20        0.24
  YSB1174              JUNCTION     0.17     0.30     9.41     0  02:20        0.30
  YSB1171              JUNCTION     0.37     0.51     9.41     0  02:19        0.51
  YS02006553           JUNCTION     0.62     0.79     7.08     0  03:00        0.79
  YS02006561           JUNCTION     0.11     0.19     6.85     0  02:59        0.19
  YS02006556           JUNCTION     0.59     0.76     7.07     0  02:59        0.76
  YS02006558           JUNCTION     0.63     0.81     7.07     0  02:59        0.81
  YS02001783           JUNCTION     0.24     0.60     6.74     0  02:52        0.57
  YS02001784           JUNCTION     0.28     0.66     6.73     0  02:52        0.64
  YS02001786           JUNCTION     0.27     0.68     6.71     0  02:52        0.68
  YS02001788           JUNCTION     0.25     0.70     6.68     0  02:52        0.69
  YS02001790           JUNCTION     0.39     1.04     6.68     0  02:49        1.00
  YS02001791           JUNCTION     0.43     1.16     6.63     0  02:52        1.15
  YS02001793           JUNCTION     0.71     1.78     6.61     0  02:52        1.77
  WS02004139           JUNCTION     0.37     0.55     5.46     0  00:30        0.55
  WSC                  OUTFALL      0.17     0.22     0.89     0  05:09        0.22
  3                    OUTFALL      0.03     0.13     6.13     0  00:00        0.11
  4                    OUTFALL      0.00     0.05     7.05     0  04:51        0.05
  5                    OUTFALL      0.00     0.00     5.00     0  00:00        0.00
  JK-storage           STORAGE      3.55     5.80     6.60     0  02:51        5.80
  CC-storage           STORAGE      0.53     0.77     7.77     0  06:54        0.77
  XR-storage           STORAGE      7.58     7.72     5.72     0  00:53        7.72
  
  
  *******************
  Node Inflow Summary
  *******************
  
  -------------------------------------------------------------------------------------------------
                                  Maximum  Maximum                  Lateral       Total        Flow
                                  Lateral    Total  Time of Max      Inflow      Inflow     Balance
                                   Inflow   Inflow   Occurrence      Volume      Volume       Error
  Node                 Type           LPS      LPS  days hr:min    10^6 ltr    10^6 ltr     Percent
  -------------------------------------------------------------------------------------------------
  WS02001211           JUNCTION      7.35   197.51     0  00:30       0.207        1.72       0.672
  WS02001212           JUNCTION      0.00   197.35     0  00:30           0        1.71       0.213
  WS02001213           JUNCTION      0.00   197.28     0  00:30           0        1.71       0.674
  WS02003069           JUNCTION      0.32   312.42     0  05:06     0.00902        5.19       0.219
  WS02003072           JUNCTION      0.00   310.87     0  05:06           0        5.18       0.325
  WS02003073           JUNCTION      1.82   312.43     0  05:07      0.0514        5.21       0.334
  WS02003060           JUNCTION     16.53   332.76     0  05:05       0.466        5.21       0.210
  WS02003066           JUNCTION      0.00   316.02     0  05:04           0        3.07       0.089
  WS02003059           JUNCTION      0.00   197.03     0  00:31           0        1.71       1.344
  WS02003067           JUNCTION      0.00   315.94     0  05:04           0        3.07       0.208
  WS02004401           JUNCTION      0.00   356.04     0  04:59           0        3.24       0.495
  WS02004402           JUNCTION      0.00   351.03     0  04:59           0        3.22       0.480
  WS02004403           JUNCTION      0.00   347.49     0  05:00           0        3.21       0.449
  WS02004404           JUNCTION      0.16   345.37     0  05:00     0.00457         3.2       0.353
  WS02004406           JUNCTION      0.00   343.16     0  05:00           0        3.17       0.867
  WS02004409           JUNCTION      0.00   342.12     0  05:01           0        3.14       0.284
  WS02004410           JUNCTION      0.00   334.69     0  05:02           0        3.13       0.340
  WS02004411           JUNCTION      0.00   327.25     0  05:02           0        3.12       0.367
  WS02004412           JUNCTION      0.00   321.35     0  05:03           0        3.11       0.426
  WS02004413           JUNCTION      0.00   317.37     0  05:04           0        3.09       0.676
  WS02004405           JUNCTION      0.04   344.26     0  05:00     0.00107        3.19       0.529
  WS02006109           JUNCTION      1.23   390.20     0  04:55      0.0347        3.31       0.470
  WS02006110           JUNCTION      0.00   390.12     0  04:56           0        3.29       0.508
  WS02006111           JUNCTION      0.00   397.57     0  04:56           0        3.27       0.104
  WS02006112           JUNCTION      6.86   390.27     0  04:56      0.0203        3.29       0.730
  WS02006113           JUNCTION      0.00   389.51     0  04:56           0        3.28       0.215
  WS02006115           JUNCTION      0.00   380.24     0  04:56           0        3.26       0.414
  WS02006116           JUNCTION      0.00   363.06     0  04:56           0        3.25       0.405
  WS02006230           JUNCTION     10.28   381.66     0  04:53        0.29        2.57       0.388
  WS02006231           JUNCTION      0.00   374.19     0  04:53           0        2.29       0.473
  WS02006232           JUNCTION      0.00   374.88     0  04:53           0         2.3       0.614
  WS02006234           JUNCTION      0.00   376.66     0  04:52           0        2.31       0.161
  WS02006235           JUNCTION      0.00   378.94     0  04:52           0        2.36       0.510
  WS02006238           JUNCTION      0.00   292.51     0  04:53           0        1.59       0.190
  WS02006240           JUNCTION      0.00   309.78     0  04:51           0        1.56       0.728
  WS02006242           JUNCTION      0.00   323.55     0  04:51           0        1.56       0.854
  WS02006243           JUNCTION      0.00   334.45     0  04:51           0        1.56       0.145
  WS02006245           JUNCTION      0.00   341.25     0  04:51           0        1.57       1.063
  WS02006247           JUNCTION      0.00   347.53     0  04:50           0        1.58       0.542
  WS02006248           JUNCTION      0.00   352.25     0  04:50           0        1.58       0.066
  WS02006249           JUNCTION      0.00   382.26     0  04:50           0         1.6       0.978
  WS02006239           JUNCTION      0.00   297.83     0  04:52           0        1.57      -0.013
  WS02006251           JUNCTION      0.08   400.04     0  04:50     0.00217        1.64       0.476
  WS02006252           JUNCTION      0.00   400.00     0  04:50           0         1.5       0.033
  WS02006253           JUNCTION      1.06    29.58     0  02:20     0.00264       0.142       3.035
  WS02006256           JUNCTION      0.00   300.00     0  07:10           0        1.36       0.192
  WS02004138           JUNCTION      0.00   190.00     0  00:21           0        1.51       0.005
  WS02004407           JUNCTION      0.00   342.45     0  05:01           0        3.14       0.135
  WS02006228           JUNCTION      0.00   389.65     0  04:55           0        3.29       0.368
  WS02006229           JUNCTION      0.00   390.17     0  04:54           0         3.3       0.440
  WS02006280           JUNCTION      0.00   156.16     0  02:21           0       0.745       0.010
  WS02006284           JUNCTION      0.10   156.16     0  02:21      0.0027       0.746       0.144
  WS02006287           JUNCTION      0.00   156.07     0  02:21           0       0.744       0.096
  WSF200               JUNCTION      0.00   315.96     0  05:05           0        3.06       0.067
  HS02004901           JUNCTION      8.52     8.52     0  02:12      0.0245      0.0246       7.684
  HS02004881           JUNCTION      3.43    28.78     0  02:20      0.0107       0.111       0.084
  HS02004876           JUNCTION      5.41    25.63     0  02:20      0.0204       0.101       0.520
  HS02004870           JUNCTION      6.02    20.35     0  02:20      0.0202      0.0808       0.133
  HS02004862           JUNCTION      4.95    14.75     0  02:21      0.0257      0.0608       0.278
  HS02004856           JUNCTION      4.46     9.84     0  02:20      0.0152      0.0364       4.103
  HS02004852           JUNCTION      0.00     5.68     0  02:20           0      0.0213       0.231
  HS02004848           JUNCTION      9.71     9.71     0  02:23      0.0478      0.0478       0.092
  HS02004842           JUNCTION      0.00     4.47     0  00:03           0      0.0396      48.956
  HS02004837           JUNCTION     15.96    19.76     0  02:18       0.214       0.241       0.339
  HS02004830           JUNCTION      0.15    19.90     0  02:20     0.00423       0.231       0.536
  HS02004824           JUNCTION     10.88    30.64     0  02:24      0.0627       0.293       0.185
  HS02004817           JUNCTION      0.60    31.24     0  02:24      0.0169       0.309       5.699
  HS02004807           JUNCTION     11.35    41.54     0  02:22      0.0372       0.329       1.299
  HS02004802           JUNCTION      0.00    41.67     0  02:23           0       0.325       1.267
  HS02004799           JUNCTION      8.71    97.54     0  02:18        0.03       0.375       0.603
  HS02004792           JUNCTION     39.15    89.07     0  02:18       0.133       0.345       0.122
  HS02004788           JUNCTION     13.47    51.88     0  02:19      0.0888       0.213       0.185
  HS02004785           JUNCTION      0.15    38.85     0  02:19     0.00423       0.126       0.383
  HS02004777           JUNCTION      0.03    39.29     0  02:16    0.000846       0.127       4.258
  HS02004770           JUNCTION     33.14    40.50     0  02:14       0.105       0.127       2.492
  HS02004480           JUNCTION      0.00   114.96     0  02:20           0       0.435       0.161
  HS02004479           JUNCTION      0.00    17.77     0  02:21           0      0.0725       1.016
  HS02004478           JUNCTION      0.00   156.08     0  02:21           0       0.745       0.087
  YS02001745           JUNCTION     53.30    72.05     0  05:27       0.606       0.646       0.473
  YS02001748           JUNCTION      0.04    93.76     0  05:28     0.00127       0.666       2.167
  YS02001751           JUNCTION      0.01   100.24     0  03:40     0.00031       0.614       3.546
  YS02001754           JUNCTION      0.26   104.96     0  03:06     0.00733       0.583       4.389
  YS02001762           JUNCTION      0.00    94.81     0  03:13           0        0.64       3.438
  YS02001765           JUNCTION      0.00   118.18     0  03:13           0       0.643       3.995
  YS02001767           JUNCTION      0.54    96.84     0  03:15      0.0151       0.665       5.672
  YS02001770           JUNCTION     68.97    86.88     0  03:49       0.717       0.774       4.276
  YS02001774           JUNCTION      0.00    45.14     0  03:48           0       0.154      19.908
  YS02001779           JUNCTION      0.01    44.76     0  03:48    0.000141      0.0723      26.017
  YS02001882           JUNCTION      0.00     3.07     0  02:10           0     0.00416      59.013
  YS02001884           JUNCTION      0.00     8.87     0  02:10           0      0.0168      37.521
  YS02001759           JUNCTION     67.51   153.91     0  02:52       0.672        1.28       1.798
  YS02001887           JUNCTION     89.38    89.38     0  02:47       0.812        0.82       0.842
  YS02001890           JUNCTION      0.00    88.91     0  02:50           0       0.799       0.950
  YS02001898           JUNCTION      0.00    88.56     0  02:52           0       0.788       0.251
  YS02001901           JUNCTION      0.00    88.51     0  02:53           0       0.788       0.666
  YS02001904           JUNCTION      0.00    88.18     0  02:54           0       0.788       0.620
  YS02001907           JUNCTION      0.00   160.41     0  03:02           0        1.68       1.302
  YS02001910           JUNCTION      0.00    72.83     0  03:00           0         0.9       1.098
  YS02001915           JUNCTION     47.94    72.56     0  03:01       0.521       0.905       0.466
  YS02001918           JUNCTION      0.00    24.83     0  03:03           0       0.384       0.249
  YS02001619           JUNCTION     46.56    46.56     0  03:01       0.513       0.513       2.070
  YS02001629           JUNCTION      0.00    65.38     0  03:42           0       0.456       5.964
  YS02001641           JUNCTION      0.00    94.53     0  03:34           0       0.934       2.345
  YS02001644           JUNCTION     50.59   145.45     0  03:05       0.581        1.49       1.799
  YS02001652           JUNCTION      0.00    97.32     0  03:04           0       0.561       4.347
  YS02001655           JUNCTION      0.15    95.92     0  03:25     0.00434       0.594       3.958
  YS02001920           JUNCTION      2.87    24.85     0  03:02      0.0809       0.386       0.482
  YS02001923           JUNCTION      0.04    21.98     0  03:02     0.00106       0.306       0.084
  YS02001926           JUNCTION      0.05    22.00     0  03:01     0.00147       0.306       0.610
  YS02001929           JUNCTION     21.96    21.96     0  03:01       0.305       0.305       0.080
  YS02001658           JUNCTION      0.00    78.84     0  05:26           0       0.638       2.265
  YS02001661           JUNCTION      0.00    63.15     0  02:49           0       0.628       0.923
  YS02001664           JUNCTION     63.15    63.15     0  02:49        0.59        0.59       0.020
  YS02001622           JUNCTION      0.00    52.89     0  03:29           0       0.522       5.672
  YS02001633           JUNCTION     51.43    98.45     0  03:35       0.598       0.992       3.359
  YS02001649           JUNCTION      0.00   226.56     0  02:49           0        1.95       1.956
  YS02001757           JUNCTION      0.00   400.84     0  02:44           0        3.69       2.555
  YS02001895           JUNCTION      0.00    88.64     0  02:50           0       0.792       0.433
  YS02001625           JUNCTION      0.00    56.46     0  06:07           0       0.511       8.150
  YS02163301           JUNCTION      0.00    63.38     0  03:43           0        0.42       6.159
  YS02163601           JUNCTION      0.11   103.85     0  03:41      0.0031       0.958       3.281
  YS02164001           JUNCTION      0.00   105.10     0  03:41           0       0.936       2.224
  YS02001647           JUNCTION      0.00   137.25     0  02:58           0        1.45       2.003
  YSB1154              JUNCTION      9.61     9.61     0  02:17      0.0364      0.0378       3.977
  YSB6556              JUNCTION      0.00     9.55     0  02:19           0      0.0388       3.312
  YSB1174              JUNCTION      9.73     9.73     0  02:11      0.0266      0.0276       4.884
  YSB1171              JUNCTION      0.00    17.76     0  02:19           0      0.0719       9.629
  YS02006553           JUNCTION      0.00   160.67     0  03:02           0        1.67       0.847
  YS02006561           JUNCTION      0.00   235.25     0  02:59           0        2.36       0.024
  YS02006556           JUNCTION      0.00   160.87     0  03:03           0        1.67       0.609
  YS02006558           JUNCTION     75.61   235.27     0  02:59       0.739        2.38       0.184
  YS02001783           JUNCTION      0.00   235.25     0  02:59           0        2.36       0.057
  YS02001784           JUNCTION      1.06   284.81     0  02:52      0.0299        2.38       0.096
  YS02001786           JUNCTION      0.06   279.60     0  02:54     0.00159        2.38       0.094
  YS02001788           JUNCTION      0.07   307.47     0  02:53       0.002        2.38       0.050
  YS02001790           JUNCTION      0.15   301.43     0  02:53     0.00437        2.39       0.049
  YS02001791           JUNCTION      0.00   302.48     0  02:53           0        2.39       0.024
  YS02001793           JUNCTION      0.00   302.87     0  02:53           0        2.41       0.056
  WS02004139           JUNCTION      0.32   190.33     0  00:20     0.00905        1.52       0.831
  WSC                  OUTFALL       0.00   311.29     0  05:09           0         5.2       0.000
  3                    OUTFALL       0.00   250.55     0  00:00           0       0.565       0.000
  4                    OUTFALL       0.00    28.25     0  04:51           0     0.00418       0.000
  5                    OUTFALL       0.00     0.00     0  00:00           0           0       0.000 ltr
  JK-storage           STORAGE       0.00   400.43     0  02:43           0        2.56      -0.812
  CC-storage           STORAGE       0.00   356.75     0  02:59           0        3.59       1.258
  XR-storage           STORAGE     286.77   286.77     0  02:58        6.65        7.25      -0.001
  
  
  **********************
  Node Surcharge Summary
  **********************
  
  Surcharging occurs when water rises above the top of the highest conduit.
  ---------------------------------------------------------------------
                                               Max. Height   Min. Depth
                                   Hours       Above Crown    Below Rim
  Node                 Type      Surcharged         Meters       Meters
  ---------------------------------------------------------------------
  WS02006232           JUNCTION        0.03          0.004        1.476
  WS02006252           JUNCTION        0.13          0.185        0.915
  YS02001754           JUNCTION        2.60          0.129        1.021
  YS02001762           JUNCTION        4.51          0.433        0.717
  YS02001765           JUNCTION        4.16          0.402        0.698
  YS02001767           JUNCTION        3.92          0.392        0.638
  YS02001770           JUNCTION        3.67          0.401        0.519
  YS02001774           JUNCTION        4.41          0.517        0.533
  YS02001779           JUNCTION        2.25          0.279        0.401
  YS02001759           JUNCTION        4.63          0.440        0.770
  YS02001641           JUNCTION        4.30          0.361        0.739
  YS02001644           JUNCTION        4.36          0.367        0.553
  YS02001652           JUNCTION        3.23          0.162        0.968
  YS02001633           JUNCTION        4.00          0.328        0.732
  YS02001649           JUNCTION        4.54          0.401        0.649
  YS02001757           JUNCTION        5.02          0.533        0.677
  YS02001625           JUNCTION        3.35          0.177        0.603
  YS02163301           JUNCTION        3.72          0.279        0.751
  YS02163601           JUNCTION        4.52          0.402        0.678
  YS02164001           JUNCTION        4.11          0.347        0.753
  YS02001647           JUNCTION        3.32          0.181        0.719
  YS02001790           JUNCTION        1.99          0.235        0.922
  YS02001791           JUNCTION        2.05          0.357        1.563
  YS02001793           JUNCTION        2.69          0.778        1.822
  
  
  *********************
  Node Flooding Summary
  *********************
  
  Flooding refers to all water that overflows a node, whether it ponds or not.
  --------------------------------------------------------------------------
                                                             Total   Maximum
                                 Maximum   Time of Max       Flood    Ponded
                        Hours       Rate    Occurrence      Volume     Depth
  Node                 Flooded       LPS   days hr:min    10^6 ltr    Meters
  --------------------------------------------------------------------------
  JK-storage              1.88    303.72      0  02:53       1.148     0.000
  XR-storage              6.94    278.50      0  02:30       4.815     0.000
  
  
  **********************
  Storage Volume Summary
  **********************
  
  --------------------------------------------------------------------------------------------------
                         Average     Avg  Evap Exfil       Maximum     Max    Time of Max    Maximum
                          Volume    Pcnt  Pcnt  Pcnt        Volume    Pcnt     Occurrence    Outflow
  Storage Unit           1000 m3    Full  Loss  Loss       1000 m3    Full    days hr:min        LPS
  --------------------------------------------------------------------------------------------------
  JK-storage               0.178      61     0     0         0.291     100       0  02:51     300.00
  CC-storage               1.472       9     0     0         2.147      14       0  06:54     400.00
  XR-storage               0.910      98     0     0         0.926     100       0  00:53     190.00
  
  
  ***********************
  Outfall Loading Summary
  ***********************
  
  -----------------------------------------------------------
                         Flow       Avg       Max       Total
                         Freq      Flow      Flow      Volume
  Outfall Node           Pcnt       LPS       LPS    10^6 ltr
  -----------------------------------------------------------
  WSC                   99.99    203.41    311.29       5.196
  3                     31.93    119.28    250.55       0.565
  4                      2.65     12.89     28.25       0.004
  5                      0.00      0.00      0.00       0.000
  -----------------------------------------------------------
  System                33.64    335.58    489.37       5.766
  
  
  ********************
  Link Flow Summary
  ********************
  
  -----------------------------------------------------------------------------
                                 Maximum  Time of Max   Maximum    Max/    Max/
                                  |Flow|   Occurrence   |Veloc|    Full    Full
  Link                 Type          LPS  days hr:min     m/sec    Flow   Depth
  -----------------------------------------------------------------------------
  WS02003066WSF200     CONDUIT    315.96     0  05:05      2.49    0.05    0.17
  WS02006287WS02006284 CONDUIT    156.06     0  02:21      1.47    0.07    0.19
  WS02006284WS02006280 CONDUIT    156.16     0  02:21      1.72    0.07    0.17
  WS02006280WS02006229 CONDUIT    156.16     0  02:21      2.76    0.03    0.12
  WS02006229WS02006228 CONDUIT    389.65     0  04:55      0.83    1.29    0.99
  WS02006256WS02006235 CONDUIT    166.25     0  00:01      2.58    1.76    1.00
  WS02006253WS02006251 CONDUIT     29.57     0  02:20      0.44    0.09    0.83
  WS02006252WS02006251 CONDUIT    399.96     0  04:50      3.18    1.47    1.00
  WS02006251WS02006249 CONDUIT    382.26     0  04:50      1.15    1.10    0.80
  WS02006249WS02006248 CONDUIT    352.25     0  04:50      1.17    1.93    0.74
  WS02006248WS02006247 CONDUIT    347.53     0  04:50      1.14    0.76    0.76
  WS02006247WS02006245 CONDUIT    341.25     0  04:51      1.11    2.71    0.78
  WS02006245WS02006243 CONDUIT    334.45     0  04:51      1.14    0.99    0.78
  WS02006243WS02006242 CONDUIT    323.55     0  04:51      0.98    0.69    0.87
  WS02006242WS02006240 CONDUIT    309.78     0  04:51      0.88    1.23    0.92
  WS02006240WS02006239 CONDUIT    297.83     0  04:52      0.96    0.94    0.89
  WS02006239WS02006238 CONDUIT    292.51     0  04:53      0.81    0.94    0.97
  WS02006238WS02006235 CONDUIT    291.88     0  04:53      1.25    0.65    0.98
  WS02006235WS02006234 CONDUIT    376.66     0  04:52      1.04    3.97    0.92
  WS02006234WS02006232 CONDUIT    374.88     0  04:53      1.13    0.76    0.96
  WS02006232WS02006231 CONDUIT    374.19     0  04:53      1.04    0.78    0.89
  WS02006231WS02006230 CONDUIT    371.38     0  04:53      1.37    5.63    0.70
  WS02006230WS02006229 CONDUIT    375.85     0  04:54      0.98    8.36    1.00
  WS02006228WS02006109 CONDUIT    388.97     0  04:55      0.77    1.70    0.99
  WS02006116WS02004401 CONDUIT    356.04     0  04:59      0.73    0.49    0.68
  WS02006115WS02006116 CONDUIT    363.06     0  04:56      0.91    0.47    0.59
  WS02006113WS02006111 CONDUIT    397.57     0  04:56      2.20    0.48    0.39
  WS02006112WS02006115 CONDUIT    380.24     0  04:56      0.70    0.22    0.72
  WS02006111WS02006112 CONDUIT    390.20     0  04:56      1.32    0.19    0.65
  WS02006110WS02006113 CONDUIT    389.51     0  04:56      0.98    0.35    0.74
  WS02006109WS02006110 CONDUIT    390.12     0  04:56      0.80    0.75    0.93
  WS02004411WS02004412 CONDUIT    321.35     0  05:03      0.74    0.46    0.55
  WS02004401WS02004402 CONDUIT    351.03     0  04:59      0.77    0.42    0.71
  WS02004413WS02003067 CONDUIT    315.94     0  05:04      0.83    0.14    0.49
  WS02004412WS02004413 CONDUIT    317.37     0  05:04      0.60    0.21    0.64
  WS02004410WS02004411 CONDUIT    327.25     0  05:02      0.82    0.45    0.53
  WS02004409WS02004410 CONDUIT    334.69     0  05:02      0.90    0.43    0.51
  WS02004407WS02004409 CONDUIT    342.12     0  05:01      1.39    0.12    0.36
  WS02004406WS02004407 CONDUIT    342.45     0  05:01      0.80    0.15    0.54
  WS02004405WS02004406 CONDUIT    343.16     0  05:00      0.66    0.68    0.83
  WS02004404WS02004405 CONDUIT    344.22     0  05:00      0.84    3.37    0.83
  WS02004403WS02004404 CONDUIT    345.21     0  05:00      0.74    0.25    0.79
  WS02004402WS02004403 CONDUIT    347.49     0  05:00      0.75    0.50    0.74
  WS02004139WS02001211 CONDUIT    190.16     0  00:30      0.53    0.24    0.44
  WS02004138WS02004139 CONDUIT    190.01     0  00:20      2.39    0.04    0.32
  WS02003067WS02003066 CONDUIT    316.02     0  05:04      0.89    0.10    0.35
  WS02001213WS02003059 CONDUIT    197.03     0  00:31      0.47    0.33    0.53
  WS02001212WS02001213 CONDUIT    197.28     0  00:30      1.03    0.30    0.29
  WS02001211WS02001212 CONDUIT    197.35     0  00:30      0.54    0.15    0.48
  WS02003072WS02003073 CONDUIT    310.61     0  05:07      1.18    0.67    0.28
  WS02003069WS02003072 CONDUIT    310.87     0  05:06      1.14    0.15    0.29
  WS02003060WS02003069 CONDUIT    312.10     0  05:06      1.43    0.12    0.25
  WS02003059WS02003060 CONDUIT    196.75     0  00:31      0.67    0.13    0.41
  HS02004901HS02004770 CONDUIT      7.66     0  02:17      0.04    0.03    0.29
  HS02004876HS02004881 CONDUIT     25.67     0  02:21      0.46    0.27    0.08
  HS02004870HS02004876 CONDUIT     20.33     0  02:21      0.32    0.01    0.09
  HS02004842HS02004848 CONDUIT      4.35     0  02:33      0.02    0.00    0.27
  HS02004837HS02004842 CONDUIT      4.48     0  02:34      0.41    0.00    0.28
  HS02004830HS02004837 CONDUIT     19.75     0  02:20      0.41    0.02    0.07
  HS02004824HS02004830 CONDUIT     19.90     0  02:21      0.45    0.03    0.06
  HS02004817HS02004824 CONDUIT     30.64     0  02:24      0.17    0.01    0.38
  HS02004770HS02004777 CONDUIT     39.26     0  02:16      0.19    0.07    0.30
  HS02004799HS02004480 CONDUIT     97.36     0  02:19      0.51    0.12    0.27
  HS02004792HS02004799 CONDUIT     89.02     0  02:19      0.59    0.05    0.21
  HS02004788HS02004792 CONDUIT     51.84     0  02:20      0.75    0.03    0.10
  HS02004785HS02004788 CONDUIT     38.73     0  02:20      0.45    0.29    0.12
  HS02004777HS02004785 CONDUIT     38.70     0  02:19      0.23    0.05    0.24
  HS02004480HS02004478 CONDUIT    114.92     0  02:20      0.85    0.48    0.19
  HS02004479HS02004480 CONDUIT     17.91     0  02:22      0.16    0.02    0.27
  HS02004862HS02004870 CONDUIT     14.71     0  02:22      0.41    0.02    0.05
  HS02004848HS02004852 CONDUIT      5.68     0  02:20      0.27    0.01    0.03
  HS02004856HS02004862 CONDUIT      9.82     0  02:21      0.30    0.01    0.05
  HS02004852HS02004856 CONDUIT      5.64     0  02:22      0.10    0.01    0.08
  HS02004802HS02004478 CONDUIT     41.88     0  02:24      0.26    0.04    0.23
  HS02004478WS02006287 CONDUIT    156.07     0  02:21      1.16    0.04    0.15
  HS02004817HS02004807 CONDUIT     31.57     0  02:26      0.09    0.02    0.48
  HS02004807HS02004802 CONDUIT     41.67     0  02:23      0.22    0.08    0.27
  YS02001759YS02001757 CONDUIT    152.22     0  03:08      0.19    0.11    1.00
  YS02001762YS02001759 CONDUIT     86.41     0  02:52      0.17    0.10    1.00
  YS02001765YS02001762 CONDUIT     94.81     0  03:13      0.22    0.09    1.00
  YS02001770YS02001767 CONDUIT     93.04     0  03:15      0.33    0.37    1.00
  YS02001774YS02001770 CONDUIT     45.14     0  03:48      0.12    0.03    1.00
  YS02001779YS02001774 CONDUIT     44.75     0  03:48      0.08    0.02    1.00
  YS02001649YS02001757 CONDUIT    213.23     0  03:04      0.27    0.13    1.00
  YS02001767YS02001765 CONDUIT    118.18     0  03:13      0.26    0.15    1.00
  YS02006561YS02001783 CONDUIT    235.25     0  02:59      1.65    0.12    0.49
  YS02001783YS02001784 CONDUIT    283.75     0  02:52      1.12    0.39    0.77
  YS02001784YS02001785 CONDUIT    279.54     0  02:54      1.17    0.65    0.83
  YS02001788YS02001790 CONDUIT    301.28     0  02:53      1.72    0.22    0.94
  YS02001790YS02001791 CONDUIT    302.48     0  02:53      2.02    0.33    1.00
  YS02001791YS02001793 CONDUIT    302.87     0  02:53      3.93    0.13    1.00
  YS02001910YS02001907 CONDUIT     72.85     0  03:01      0.49    0.04    0.67
  YS02001786YS02001788 CONDUIT    307.40     0  02:53      1.60    0.59    0.86
  YS02001915YS02001910 CONDUIT     72.83     0  03:00      0.44    0.04    0.46
  YS02001918YS02001915 CONDUIT     24.82     0  03:04      0.44    0.01    0.22
  YS02001923YS02001920 CONDUIT     21.98     0  03:02      0.38    0.01    0.13
  YS02001926YS02001923 CONDUIT     21.94     0  03:02      0.43    0.03    0.12
  YS02001929YS02001926 CONDUIT     21.95     0  03:01      0.45    0.01    0.11
  YS02001920YS02001918 CONDUIT     24.83     0  03:03      0.40    0.02    0.13
  YS02001629YS02163301 CONDUIT     63.38     0  03:43      0.10    0.08    1.00
  YS02001619YS02001622 CONDUIT     52.89     0  03:29      0.60    0.08    0.87
  YS02001622YS02001625 CONDUIT     56.46     0  06:07      0.21    0.03    0.94
  YS02001625YS02001629 CONDUIT     65.38     0  03:42      0.21    0.03    0.93
  YS02163301YS02001633 CONDUIT     56.91     0  03:35      0.10    0.05    1.00
  YS02163601YS02164001 CONDUIT    105.10     0  03:41      0.13    0.09    1.00
  YS02164001YS02001641 CONDUIT     94.53     0  03:34      0.13    0.13    1.00
  YS02001641YS02001644 CONDUIT     96.35     0  03:05      0.14    0.31    1.00
  YS02001647YS02001649 CONDUIT    149.98     0  03:02      0.22    0.08    1.00
  YS02006553YS02006556 CONDUIT    160.87     0  03:03      0.25    0.14    0.76
  YS02006556YS02006558 CONDUIT    161.03     0  03:03      0.24    0.13    0.79
  YSB6556YSB1171       CONDUIT      9.66     0  02:22      0.05    0.01    0.54
  YS02001907YS02006553 CONDUIT    160.67     0  03:02      0.21    0.19    0.86
  YS02006558YS02006561 CONDUIT    235.25     0  02:59      2.13    0.52    0.41
  YS02001633YS02163601 CONDUIT    103.74     0  03:41      0.14    0.11    1.00
  YS02001644YS02001647 CONDUIT    137.25     0  02:58      0.21    0.08    1.00
  YS02001745YS02001748 CONDUIT     93.72     0  05:28      1.31    0.04    0.44
  YS02001748YS02001751 CONDUIT    100.23     0  03:40      1.01    0.05    0.80
  YS02001751YS02001754 CONDUIT    104.70     0  03:06      0.92    0.05    0.95
  YS02001754YS02001757 CONDUIT     94.67     0  03:06      0.33    0.04    1.00
  YS02001882YS02001884 CONDUIT      3.07     0  02:10      0.06    0.00    0.40
  YS02001884YS02001887 CONDUIT      8.87     0  02:10      0.06    0.01    0.49
  YS02001890YS02001895 CONDUIT     88.64     0  02:50      0.25    0.04    0.46
  YS02001895YS02001898 CONDUIT     88.56     0  02:52      0.46    0.15    0.33
  YS02001898YS02001901 CONDUIT     88.51     0  02:53      0.30    0.06    0.41
  YS02001901YS02001904 CONDUIT     88.18     0  02:54      0.25    0.14    0.46
  YS02001904YS02001907 CONDUIT     88.28     0  02:54      0.17    0.03    0.62
  YS02001887YS02001890 CONDUIT     88.91     0  02:50      0.20    0.15    0.55
  YS02001652YS02001649 CONDUIT     95.91     0  03:31      0.31    0.05    1.00
  YS02001655YS02001652 CONDUIT     97.32     0  03:04      0.99    0.05    0.97
  YS02001658YS02001655 CONDUIT     95.76     0  03:25      1.17    0.04    0.78
  YS02001661YS02001658 CONDUIT     78.84     0  05:26      1.33    0.03    0.47
  YS02001664YS02001661 CONDUIT     63.15     0  02:49      0.97    0.02    0.21
  YSB1154YSB6556       CONDUIT      9.55     0  02:19      0.19    0.02    0.43
  YSB1174YSB1171       CONDUIT      8.95     0  02:13      0.05    0.01    0.54
  YSB1171HS02004479    CONDUIT     17.77     0  02:21      0.54    0.01    0.41
  HS02004881HS02006253 CONDUIT     28.78     0  02:20      1.48    0.01    0.19
  YS02001793JiankangQianchi CONDUIT    400.43     0  02:43      7.77    0.03    1.00
  YS02001757CaochengTiaoxuchi CONDUIT    356.75     0  02:59      0.77    0.16    0.89
  WSF200WS02003060     CONDUIT    316.23     0  05:05      1.87    0.07    0.21
  1                    CONDUIT    311.29     0  05:09      2.39    0.11    0.22
  2                    CONDUIT     28.25     0  04:51      3.37    0.07    0.18
  3                    CONDUIT    250.55     0  00:00      8.26    0.40    0.46
  4                    CONDUIT      0.00     0  00:00      0.00    0.00    0.00
  CC-Pump-1            PUMP       200.00     0  07:40              1.00
  CC-Pump-2            PUMP       200.00     0  04:50              1.00
  JK-Pump-1            PUMP       300.00     0  00:00              1.00
  JK-Pump-2            PUMP       300.00     0  04:50              1.00
  XR-Pump-1            PUMP        95.00     0  00:00              1.00
  XR-Pump-2            PUMP        94.95     0  07:10              1.00
  XR-Pump-3            PUMP         0.00     0  00:00              0.00
  XR-Pump-4            PUMP        95.00     0  00:20              1.00
  
  
  ***************************
  Flow Classification Summary
  ***************************
  
  -------------------------------------------------------------------------------------
                      Adjusted    ---------- Fraction of Time in Flow Class ---------- 
                       /Actual         Up    Down  Sub   Sup   Up    Down  Norm  Inlet 
  Conduit               Length    Dry  Dry   Dry   Crit  Crit  Crit  Crit  Ltd   Ctrl  
  -------------------------------------------------------------------------------------
  WS02003066WSF200        1.00   0.10  0.00  0.00  0.00  0.90  0.00  0.00  0.75  0.00
  WS02006287WS02006284    1.00   0.06  0.02  0.00  0.77  0.15  0.00  0.00  0.78  0.00
  WS02006284WS02006280    1.00   0.07  0.00  0.00  0.00  0.00  0.00  0.93  0.00  0.00
  WS02006280WS02006229    1.00   0.07  0.00  0.00  0.00  0.00  0.00  0.93  0.00  0.00
  WS02006229WS02006228    1.00   0.00  0.00  0.00  0.98  0.00  0.00  0.02  0.00  0.00
  WS02006256WS02006235    1.00   0.00  0.00  0.00  0.99  0.01  0.00  0.00  0.00  0.00
  WS02006253WS02006251    1.00   0.05  0.02  0.00  0.93  0.00  0.01  0.00  0.00  0.00
  WS02006252WS02006251    1.00   0.20  0.00  0.00  0.00  0.00  0.80  0.00  0.00  0.00
  WS02006251WS02006249    1.00   0.00  0.00  0.00  1.00  0.00  0.00  0.00  0.57  0.00
  WS02006249WS02006248    1.00   0.00  0.03  0.00  0.64  0.00  0.33  0.00  0.00  0.00
  WS02006248WS02006247    1.00   0.04  0.00  0.00  0.96  0.00  0.00  0.01  0.48  0.00
  WS02006247WS02006245    1.00   0.03  0.00  0.00  0.94  0.00  0.00  0.03  0.00  0.00
  WS02006245WS02006243    1.00   0.02  0.01  0.00  0.83  0.00  0.00  0.14  0.03  0.00
  WS02006243WS02006242    1.00   0.01  0.01  0.00  0.98  0.00  0.00  0.00  0.54  0.00
  WS02006242WS02006240    1.00   0.01  0.00  0.00  0.98  0.00  0.01  0.00  0.00  0.00
  WS02006240WS02006239    1.00   0.00  0.00  0.00  0.85  0.00  0.00  0.14  0.02  0.00
  WS02006239WS02006238    1.00   0.00  0.00  0.00  1.00  0.00  0.00  0.00  0.17  0.00
  WS02006238WS02006235    1.00   0.00  0.00  0.00  1.00  0.00  0.00  0.00  0.00  0.00
  WS02006235WS02006234    1.00   0.00  0.00  0.00  0.89  0.00  0.11  0.00  0.00  0.00
  WS02006234WS02006232    1.00   0.00  0.00  0.00  1.00  0.00  0.00  0.00  0.17  0.00
  WS02006232WS02006231    1.00   0.00  0.00  0.00  0.99  0.00  0.01  0.00  0.00  0.00
  WS02006231WS02006230    1.00   0.01  0.00  0.00  0.06  0.00  0.93  0.00  0.00  0.00
  WS02006230WS02006229    1.00   0.00  0.00  0.00  0.98  0.00  0.00  0.02  0.02  0.00
  WS02006228WS02006109    1.00   0.00  0.00  0.00  0.99  0.00  0.00  0.01  0.00  0.00
  WS02006116WS02004401    1.00   0.04  0.00  0.00  0.96  0.00  0.00  0.00  0.00  0.00
  WS02006115WS02006116    1.00   0.04  0.00  0.00  0.95  0.00  0.00  0.01  0.00  0.00
  WS02006113WS02006111    1.00   0.03  0.00  0.00  0.00  0.97  0.00  0.00  0.18  0.00
  WS02006112WS02006115    1.00   0.04  0.00  0.00  0.96  0.00  0.00  0.00  0.00  0.00
  WS02006111WS02006112    1.00   0.04  0.00  0.00  0.96  0.00  0.00  0.00  0.98  0.00
  WS02006110WS02006113    1.00   0.02  0.01  0.00  0.97  0.00  0.00  0.00  0.00  0.00
  WS02006109WS02006110    1.00   0.00  0.02  0.00  0.97  0.00  0.01  0.00  0.00  0.00
  WS02004411WS02004412    1.00   0.06  0.00  0.00  0.94  0.00  0.00  0.00  0.00  0.00
  WS02004401WS02004402    1.00   0.04  0.00  0.00  0.96  0.00  0.00  0.00  0.00  0.00
  WS02004413WS02003067    1.00   0.07  0.02  0.00  0.00  0.00  0.91  0.00  0.00  0.00
  WS02004412WS02004413    1.00   0.06  0.00  0.00  0.94  0.00  0.00  0.00  0.03  0.00
  WS02004410WS02004411    1.00   0.06  0.00  0.00  0.94  0.00  0.00  0.00  0.04  0.00
  WS02004409WS02004410    1.00   0.06  0.00  0.00  0.94  0.00  0.00  0.00  0.04  0.00
  WS02004407WS02004409    1.00   0.06  0.00  0.00  0.93  0.00  0.00  0.00  0.89  0.00
  WS02004406WS02004407    1.00   0.00  0.06  0.00  0.94  0.00  0.00  0.00  0.00  0.00
  WS02004405WS02004406    1.00   0.00  0.00  0.00  1.00  0.00  0.00  0.00  0.00  0.00
  WS02004404WS02004405    1.00   0.00  0.00  0.00  1.00  0.00  0.00  0.00  0.00  0.00
  WS02004403WS02004404    1.00   0.00  0.04  0.00  0.96  0.00  0.00  0.00  0.01  0.00
  WS02004402WS02004403    1.00   0.04  0.00  0.00  0.96  0.00  0.00  0.00  0.00  0.00
  WS02004139WS02001211    1.00   0.00  0.00  0.00  0.99  0.00  0.01  0.00  0.00  0.00
  WS02004138WS02004139    1.00   0.00  0.04  0.00  0.94  0.01  0.00  0.00  1.00  0.00
  WS02003067WS02003066    1.00   0.09  0.01  0.00  0.90  0.00  0.00  0.00  0.00  0.00
  WS02001213WS02003059    1.00   0.00  0.01  0.00  0.98  0.00  0.00  0.00  0.00  0.00
  WS02001212WS02001213    1.00   0.01  0.00  0.00  0.27  0.00  0.72  0.00  0.00  0.00
  WS02001211WS02001212    1.00   0.00  0.01  0.00  0.99  0.00  0.00  0.00  0.00  0.00
  WS02003072WS02003073    1.00   0.00  0.00  0.00  0.00  0.00  0.00  1.00  0.00  0.00
  WS02003069WS02003072    1.00   0.00  0.00  0.00  0.99  0.01  0.00  0.00  0.97  0.00
  WS02003060WS02003069    1.00   0.00  0.00  0.00  0.97  0.03  0.00  0.00  0.66  0.00
  WS02003059WS02003060    1.00   0.00  0.00  0.00  0.99  0.01  0.00  0.00  0.02  0.00
  HS02004901HS02004770    1.00   0.07  0.00  0.00  0.93  0.00  0.00  0.00  0.03  0.00
  HS02004876HS02004881    1.00   0.04  0.00  0.00  0.96  0.00  0.00  0.00  0.00  0.00
  HS02004870HS02004876    1.00   0.01  0.00  0.00  0.99  0.00  0.00  0.00  0.95  0.00
  HS02004842HS02004848    1.00   0.00  0.07  0.00  0.93  0.00  0.00  0.00  0.70  0.00
  HS02004837HS02004842    1.00   0.00  0.00  0.00  0.99  0.01  0.00  0.00  0.11  0.00
  HS02004830HS02004837    1.00   0.00  0.00  0.00  1.00  0.00  0.00  0.00  0.99  0.00
  HS02004824HS02004830    1.00   0.00  0.00  0.00  1.00  0.00  0.00  0.00  0.00  0.00
  HS02004817HS02004824    1.00   0.00  0.00  0.00  1.00  0.00  0.00  0.00  1.00  0.00
  HS02004770HS02004777    1.00   0.00  0.07  0.00  0.93  0.00  0.00  0.00  0.07  0.00
  HS02004799HS02004480    1.00   0.01  0.04  0.00  0.91  0.00  0.05  0.00  0.00  0.00
  HS02004792HS02004799    1.00   0.00  0.00  0.00  0.98  0.02  0.00  0.00  0.98  0.00
  HS02004788HS02004792    1.00   0.00  0.00  0.00  0.98  0.02  0.00  0.00  0.98  0.00
  HS02004785HS02004788    1.00   0.00  0.00  0.00  1.00  0.00  0.00  0.00  0.00  0.00
  HS02004777HS02004785    1.00   0.00  0.00  0.00  1.00  0.00  0.00  0.00  0.21  0.00
  HS02004480HS02004478    1.00   0.08  0.00  0.00  0.81  0.00  0.00  0.11  0.00  0.00
  HS02004479HS02004480    1.00   0.04  0.00  0.00  0.96  0.00  0.00  0.00  0.16  0.00
  HS02004862HS02004870    1.00   0.00  0.00  0.00  1.00  0.00  0.00  0.00  0.05  0.00
  HS02004848HS02004852    1.00   0.07  0.00  0.00  0.93  0.00  0.00  0.00  0.70  0.00
  HS02004856HS02004862    1.00   0.00  0.11  0.00  0.89  0.00  0.00  0.00  0.74  0.00
  HS02004852HS02004856    1.00   0.07  0.01  0.00  0.92  0.00  0.00  0.00  0.82  0.00
  HS02004802HS02004478    1.00   0.07  0.01  0.00  0.92  0.00  0.00  0.00  0.00  0.00
  HS02004478WS02006287    1.00   0.09  0.00  0.00  0.89  0.02  0.00  0.00  0.81  0.00
  HS02004817HS02004807    1.00   0.00  0.07  0.00  0.93  0.00  0.00  0.00  0.00  0.00
  HS02004807HS02004802    1.00   0.07  0.00  0.00  0.92  0.00  0.00  0.00  0.01  0.00
  YS02001759YS02001757    1.00   0.00  0.00  0.00  1.00  0.00  0.00  0.00  0.17  0.00
  YS02001762YS02001759    1.00   0.00  0.00  0.00  1.00  0.00  0.00  0.00  0.05  0.00
  YS02001765YS02001762    1.00   0.00  0.00  0.00  1.00  0.00  0.00  0.00  0.23  0.00
  YS02001770YS02001767    1.00   0.00  0.00  0.00  1.00  0.00  0.00  0.00  0.00  0.00
  YS02001774YS02001770    1.00   0.00  0.08  0.00  0.91  0.00  0.00  0.00  0.07  0.00
  YS02001779YS02001774    1.00   0.00  0.00  0.00  1.00  0.00  0.00  0.00  0.27  0.00
  YS02001649YS02001757    1.00   0.00  0.00  0.00  1.00  0.00  0.00  0.00  0.19  0.00
  YS02001767YS02001765    1.00   0.00  0.00  0.00  1.00  0.00  0.00  0.00  0.01  0.00
  YS02006561YS02001783    1.00   0.11  0.00  0.00  0.27  0.62  0.00  0.00  0.73  0.00
  YS02001783YS02001784    1.00   0.00  0.11  0.00  0.89  0.00  0.00  0.00  0.00  0.00
  YS02001784YS02001785    1.00   0.00  0.00  0.00  1.00  0.00  0.00  0.00  0.26  0.00
  YS02001788YS02001790    1.00   0.00  0.00  0.00  0.50  0.50  0.00  0.00  0.64  0.00
  YS02001790YS02001791    1.00   0.00  0.00  0.00  0.44  0.56  0.00  0.00  0.14  0.00
  YS02001791YS02001793    1.00   0.00  0.00  0.00  0.50  0.50  0.00  0.00  0.06  0.00
  YS02001910YS02001907    1.00   0.00  0.00  0.00  0.96  0.00  0.00  0.04  0.13  0.00
  YS02001786YS02001788    1.00   0.00  0.00  0.00  0.43  0.57  0.00  0.00  0.00  0.00
  YS02001915YS02001910    1.00   0.00  0.00  0.00  0.98  0.02  0.00  0.00  0.25  0.00
  YS02001918YS02001915    1.00   0.00  0.01  0.00  0.97  0.02  0.00  0.00  0.81  0.00
  YS02001923YS02001920    1.00   0.00  0.00  0.00  1.00  0.00  0.00  0.00  1.00  0.00
  YS02001926YS02001923    1.00   0.00  0.05  0.00  0.00  0.00  0.94  0.00  0.00  0.00
  YS02001929YS02001926    1.00   0.00  0.07  0.00  0.93  0.00  0.00  0.00  0.86  0.00
  YS02001920YS02001918    1.00   0.00  0.01  0.00  0.99  0.00  0.00  0.00  0.00  0.00
  YS02001629YS02163301    1.00   0.10  0.01  0.00  0.90  0.00  0.00  0.00  0.00  0.00
  YS02001619YS02001622    1.00   0.07  0.00  0.00  0.93  0.00  0.00  0.00  0.00  0.00
  YS02001622YS02001625    1.00   0.07  0.00  0.00  0.93  0.00  0.00  0.00  0.13  0.00
  YS02001625YS02001629    1.00   0.07  0.04  0.00  0.87  0.00  0.02  0.00  0.00  0.00
  YS02163301YS02001633    1.00   0.00  0.10  0.00  0.90  0.00  0.00  0.00  0.00  0.00
  YS02163601YS02164001    1.00   0.00  0.06  0.00  0.94  0.00  0.00  0.00  0.00  0.00
  YS02164001YS02001641    1.00   0.01  0.04  0.00  0.94  0.00  0.00  0.00  0.07  0.00
  YS02001641YS02001644    1.00   0.00  0.01  0.00  0.99  0.00  0.00  0.00  0.00  0.00
  YS02001647YS02001649    1.00   0.00  0.11  0.00  0.89  0.00  0.00  0.00  0.01  0.00
  YS02006553YS02006556    1.00   0.02  0.00  0.00  0.98  0.00  0.00  0.00  0.03  0.00
  YS02006556YS02006558    1.00   0.00  0.01  0.00  0.99  0.00  0.00  0.00  0.00  0.00
  YSB6556YSB1171          1.00   0.05  0.02  0.00  0.93  0.00  0.00  0.00  0.00  0.00
  YS02001907YS02006553    1.00   0.00  0.04  0.00  0.96  0.00  0.00  0.00  0.00  0.00
  YS02006558YS02006561    1.00   0.11  0.00  0.00  0.00  0.89  0.00  0.00  0.72  0.00
  YS02001633YS02163601    1.00   0.00  0.01  0.00  0.99  0.00  0.00  0.00  0.20  0.00
  YS02001644YS02001647    1.00   0.00  0.11  0.00  0.89  0.00  0.00  0.00  0.00  0.00
  YS02001745YS02001748    1.00   0.00  0.00  0.00  0.82  0.01  0.00  0.16  0.22  0.00
  YS02001748YS02001751    1.00   0.00  0.00  0.00  0.97  0.03  0.00  0.00  0.26  0.00
  YS02001751YS02001754    1.00   0.00  0.00  0.00  0.88  0.00  0.00  0.12  0.02  0.00
  YS02001754YS02001757    1.00   0.00  0.00  0.00  0.99  0.01  0.00  0.00  0.27  0.00
  YS02001882YS02001884    1.00   0.09  0.01  0.00  0.90  0.00  0.00  0.00  0.00  0.00
  YS02001884YS02001887    1.00   0.05  0.02  0.00  0.93  0.00  0.00  0.00  0.00  0.00
  YS02001890YS02001895    1.00   0.00  0.10  0.00  0.90  0.00  0.00  0.00  0.00  0.00
  YS02001895YS02001898    1.00   0.10  0.00  0.00  0.89  0.00  0.01  0.00  0.00  0.00
  YS02001898YS02001901    1.00   0.10  0.01  0.00  0.89  0.00  0.00  0.00  0.02  0.00
  YS02001901YS02001904    1.00   0.10  0.00  0.00  0.90  0.00  0.00  0.00  0.00  0.00
  YS02001904YS02001907    1.00   0.00  0.09  0.00  0.90  0.00  0.00  0.00  0.00  0.00
  YS02001887YS02001890    1.00   0.00  0.00  0.00  0.96  0.00  0.04  0.00  0.00  0.00
  YS02001652YS02001649    1.00   0.00  0.00  0.00  1.00  0.00  0.00  0.00  0.26  0.00
  YS02001655YS02001652    1.00   0.00  0.00  0.00  0.88  0.00  0.00  0.12  0.02  0.00
  YS02001658YS02001655    1.00   0.00  0.09  0.00  0.87  0.04  0.00  0.00  0.14  0.00
  YS02001661YS02001658    1.00   0.09  0.00  0.00  0.82  0.09  0.00  0.00  0.27  0.00
  YS02001664YS02001661    1.00   0.07  0.00  0.00  0.92  0.01  0.00  0.00  0.86  0.00
  YSB1154YSB6556          1.00   0.07  0.00  0.00  0.93  0.00  0.00  0.00  0.02  0.00
  YSB1174YSB1171          1.00   0.05  0.01  0.00  0.94  0.00  0.00  0.00  0.00  0.00
  YSB1171HS02004479       1.00   0.05  0.00  0.00  0.95  0.00  0.00  0.00  0.13  0.00
  HS02004881HS02006253    1.00   0.05  0.00  0.00  0.36  0.02  0.00  0.57  0.19  0.00
  YS02001793JiankangQianchi    1.00   0.00  0.00  0.00  0.90  0.10  0.00  0.00  0.41  0.00
  YS02001757CaochengTiaoxuchi    1.00   0.00  0.13  0.00  0.87  0.00  0.00  0.00  0.00  0.00
  WSF200WS02003060        1.00   0.00  0.10  0.00  0.37  0.53  0.00  0.00  0.51  0.00
  1                       1.00   0.00  0.00  0.00  0.00  1.00  0.00  0.00  0.22  0.00
  2                       1.00   0.97  0.00  0.00  0.00  0.03  0.00  0.00  0.01  0.00
  3                       1.00   0.68  0.00  0.00  0.00  0.32  0.00  0.00  0.70  0.00
  4                       1.00   1.00  0.00  0.00  0.00  0.00  0.00  0.00  0.00  0.00
  
  
  *************************
  Conduit Surcharge Summary
  *************************
  
  ----------------------------------------------------------------------------
                                                           Hours        Hours 
                         --------- Hours Full --------   Above Full   Capacity
  Conduit                Both Ends  Upstream  Dnstream   Normal Flow   Limited
  ----------------------------------------------------------------------------
  WS02006229WS02006228        0.01      0.01      0.01      0.15         0.01
  WS02006256WS02006235        3.07      3.07      6.25      1.42         0.01
  WS02006252WS02006251        0.05      0.05      0.13      0.11         0.01
  WS02006251WS02006249        0.01      0.01      0.01      0.04         0.01
  WS02006249WS02006248        0.01      0.01      0.01      0.83         0.01
  WS02006247WS02006245        0.01      0.01      0.01      1.64         0.01
  WS02006242WS02006240        0.01      0.01      0.01      0.11         0.01
  WS02006238WS02006235        0.01      0.01      0.03      0.01         0.01
  WS02006235WS02006234        0.01      0.01      0.01      3.02         0.01
  WS02006234WS02006232        0.01      0.01      0.03      0.01         0.01
  WS02006232WS02006231        0.01      0.01      0.03      0.01         0.01
  WS02006231WS02006230        0.01      0.01      0.01      3.27         0.01
  WS02006230WS02006229        0.10      0.13      0.10      3.80         0.10
  WS02006228WS02006109        0.01      0.07      0.01      0.86         0.01
  WS02006111WS02006112        0.01      0.01      0.13      0.01         0.01
  WS02006110WS02006113        0.01      0.01      0.03      0.01         0.01
  WS02006109WS02006110        0.01      0.01      0.07      0.01         0.01
  WS02004404WS02004405        0.01      0.01      0.01      4.19         0.01
  YS02001759YS02001757        4.63      4.63      5.02      0.01         0.01
  YS02001762YS02001759        4.51      4.51      4.63      0.01         0.01
  YS02001765YS02001762        4.16      4.16      4.51      0.01         0.01
  YS02001770YS02001767        3.89      3.90      3.92      0.01         0.39
  YS02001774YS02001770        3.67      3.67      4.41      0.01         0.01
  YS02001779YS02001774        2.24      2.24      4.41      0.01         0.01
  YS02001649YS02001757        4.54      4.54      5.02      0.01         0.01
  YS02001767YS02001765        3.92      3.92      4.16      0.01         0.01
  YS02001788YS02001790        0.01      0.01      1.99      0.01         0.01
  YS02001790YS02001791        1.99      1.99      2.05      0.01         0.01
  YS02001791YS02001793        2.05      2.05      2.82      0.01         0.01
  YS02001629YS02163301        3.58      3.58      3.72      0.01         0.01
  YS02001622YS02001625        0.01      0.01      3.35      0.01         0.01
  YS02001625YS02001629        0.01      0.01      3.35      0.01         0.01
  YS02163301YS02001633        3.72      3.72      4.16      0.01         0.01
  YS02163601YS02164001        4.11      4.11      4.52      0.01         0.01
  YS02164001YS02001641        4.11      4.11      4.30      0.01         0.01
  YS02001641YS02001644        4.30      4.30      4.36      0.01         0.18
  YS02001647YS02001649        3.32      3.32      4.54      0.01         0.01
  YS02001633YS02163601        4.00      4.00      4.52      0.01         0.01
  YS02001644YS02001647        3.32      3.32      4.36      0.01         0.01
  YS02001751YS02001754        0.01      0.01      2.60      0.01         0.01
  YS02001754YS02001757        3.32      3.32      5.02      0.01         0.01
  YS02001652YS02001649        3.37      3.37      4.54      0.01         0.01
  YS02001655YS02001652        0.01      0.01      3.22      0.01         0.01
  YS02001793JiankangQianchi        2.69      2.69      4.94      0.01         0.01
  YS02001757CaochengTiaoxuchi        0.01      0.01      5.02      0.01         0.01
  
  
  ***************
  Pumping Summary
  ***************
  
  ---------------------------------------------------------------------------------------------------------
                                                  Min       Avg       Max     Total     Power    % Time Off
                        Percent   Number of      Flow      Flow      Flow    Volume     Usage    Pump Curve
  Pump                 Utilized   Start-Ups       LPS       LPS       LPS  10^6 ltr     Kw-hr    Low   High
  ---------------------------------------------------------------------------------------------------------
  CC-Pump-1               29.75           6      0.00    117.90    200.00     0.900      2.28    0.0    0.0
  CC-Pump-2               21.28           4      0.00    109.86    200.00     0.600      1.51    0.0    0.0
  JK-Pump-1               14.90           3      0.00    207.90    300.00     0.719      8.35    0.0    0.0
  JK-Pump-2               25.53           5      0.00    139.02    300.00     0.638      5.63    0.0    0.0
  XR-Pump-1               46.77           8      0.00     61.79     95.00     0.769      4.24    0.0    0.0
  XR-Pump-2               12.77           3      0.00     47.31     94.95     0.171      1.04    0.0    0.0
  XR-Pump-3                0.00           0      0.00      0.00      0.00     0.000      0.00    0.0    0.0
  XR-Pump-4               38.28           8      0.00     51.84     95.00     0.570      3.11    0.0    0.0
  

  Analysis begun on:  Wed Jan  5 21:48:34 2022
  Analysis ended on:  Wed Jan  5 21:48:35 2022
  Total elapsed time: 00:00:01