
  EPA STORM WATER MANAGEMENT MODEL - VERSION 5.1 (Build 5.3.0.dev0)
  --------------------------------------------------------------

  WARNING 04: minimum elevation drop used for Conduit WS02004404WS02004405
  WARNING 03: negative offset ignored for Link YS02001904YS02001907
  
  *********************************************************
  NOTE: The summary statistics displayed in this report are
  based on results found at every computational time step,  
  not just on results from each reporting time step.
  *********************************************************
  
  ****************
  Analysis Options
  ****************
  Flow Units ............... LPS
  Process Models:
    Rainfall/Runoff ........ YES
    RDII ................... NO
    Snowmelt ............... NO
    Groundwater ............ NO
    Flow Routing ........... YES
    Ponding Allowed ........ NO
    Water Quality .......... NO
  Infiltration Method ...... HORTON
  Flow Routing Method ...... DYNWAVE
  Surcharge Method ......... EXTRAN
  Starting Date ............ 08/28/2015 08:00:00
  Ending Date .............. 08/28/2015 15:50:00
  Antecedent Dry Days ...... 8.0
  Report Time Step ......... 00:01:00
  Wet Time Step ............ 00:01:00
  Dry Time Step ............ 00:01:00
  Routing Time Step ........ 5.00 sec
  Variable Time Step ....... YES
  Maximum Trials ........... 8
  Number of Threads ........ 4
  Head Tolerance ........... 0.001500 m
  
  
  **************************        Volume         Depth
  Runoff Quantity Continuity     hectare-m            mm
  **************************     ---------       -------
  Total Precipitation ......         2.740         6.000
  Evaporation Loss .........         0.000         0.000
  Infiltration Loss ........         0.689         1.508
  Surface Runoff ...........         1.164         2.549
  Final Storage ............         0.888         1.944
  Continuity Error (%) .....        -0.018
  
  
  **************************        Volume        Volume
  Flow Routing Continuity        hectare-m      10^6 ltr
  **************************     ---------     ---------
  Dry Weather Inflow .......         0.616         6.165
  Wet Weather Inflow .......         1.164        11.638
  Groundwater Inflow .......         0.000         0.000
  RDII Inflow ..............         0.000         0.000
  External Inflow ..........         0.102         1.024
  External Outflow .........         0.656         6.557
  Flooding Loss ............         0.661         6.611
  Evaporation Loss .........         0.000         0.000
  Exfiltration Loss ........         0.000         0.000
  Initial Stored Volume ....         0.076         0.761
  Final Stored Volume ......         0.638         6.379
  Continuity Error (%) .....         0.201
  
  
  *************************
  Highest Continuity Errors
  *************************
  Node YS02001774 (37.72%)
  Node HS02004842 (28.09%)
  Node YS02001884 (22.40%)
  Node YSB1171 (6.85%)
  Node YS02001625 (5.76%)
  
  
  ***************************
  Time-Step Critical Elements
  ***************************
  Link WS02006252WS02006251 (48.69%)
  Link 3 (30.23%)
  Link WS02006280WS02006229 (8.77%)
  Link WS02006238WS02006235 (2.92%)
  Link 2 (2.06%)
  
  
  ********************************
  Highest Flow Instability Indexes
  ********************************
  Link WS02006113WS02006111 (47)
  Link YS02006558YS02006561 (8)
  Link YS02001793JiankangQianchi (8)
  Link YS02001791YS02001793 (7)
  Link WS02006111WS02006112 (7)
  
  
  *************************
  Routing Time Step Summary
  *************************
  Minimum Time Step           :     0.50 sec
  Average Time Step           :     1.34 sec
  Maximum Time Step           :     5.00 sec
  Percent in Steady State     :    -0.00
  Average Iterations per Step :     2.67
  Percent Not Converging      :     7.39
  
  
  ***************************
  Subcatchment Runoff Summary
  ***************************
  
  ------------------------------------------------------------------------------------------------------------------------------
                            Total      Total      Total      Total     Imperv       Perv      Total       Total     Peak  Runoff
                           Precip      Runon       Evap      Infil     Runoff     Runoff     Runoff      Runoff   Runoff   Coeff
  Subcatchment                 mm         mm         mm         mm         mm         mm         mm    10^6 ltr      LPS
  ------------------------------------------------------------------------------------------------------------------------------
  sub0                       6.00       0.00       0.00       0.42       4.32       0.00       4.32        0.00     1.44   0.719
  sub1                       6.00       0.00       0.00       0.66       4.08       0.00       4.08        0.03     7.61   0.681
  sub2                       6.00       0.00       0.00       2.22       2.87       0.00       2.87        0.03     6.74   0.479
  sub3                       6.00       0.00       0.00       2.22       2.84       0.00       2.84        0.06    13.89   0.473
  sub4                       6.00       0.00       0.00       0.66       3.95       0.00       3.95        0.08    15.61   0.658
  sub5                       6.00       0.00       0.00       0.42       4.27       0.00       4.27        0.05    13.53   0.711
  sub7                       6.00       0.00       0.00       0.54       4.21       0.00       4.21        0.01     4.76   0.701
  sub8                       6.00       0.00       0.00       0.54       4.20       0.00       4.20        0.03     8.41   0.699
  sub9                       6.00       0.00       0.00       0.54       4.19       0.00       4.19        0.02     6.23   0.699
  sub10                      6.00       0.00       0.00       0.48       4.23       0.00       4.23        0.05    13.51   0.705
  sub11                      6.00       0.00       0.00       0.48       4.25       0.00       4.25        0.05    15.82   0.708
  sub12                      6.00       0.00       0.00       0.78       4.03       0.00       4.03        0.04    13.37   0.672
  sub14                      6.00       0.00       0.00       0.54       4.19       0.00       4.19        0.04    12.19   0.699
  sub15                      6.00       0.00       0.00       1.80       3.22       0.00       3.22        0.06    16.54   0.537
  sub16                      6.00       0.00       0.00       1.98       3.10       0.00       3.10        0.03    11.75   0.517
  sub17                      6.00       0.00       0.00       1.92       3.15       0.00       3.15        0.03     9.50   0.524
  sub22                      6.00       0.00       0.00       2.58       2.63       0.00       2.63        0.17    54.10   0.439
  sub23                      6.00       0.00       0.00       2.22       2.91       0.00       2.91        0.14    46.08   0.485
  sub60                      6.00       0.00       0.00       0.72       2.84       0.00       2.84        0.86    79.76   0.473
  sub61                      6.00       0.00       0.00       1.02       3.04       0.00       3.04        0.94   100.03   0.506
  sub62                      6.00       0.00       0.00       0.48       3.26       0.00       3.26        1.00   102.24   0.543
  sub63                      6.00       0.00       0.00       1.74       2.70       0.00       2.70        0.82    93.34   0.451
  sub64                      6.00       0.00       0.00       0.90       2.71       0.00       2.71        0.83    75.76   0.452
  sub65                      6.00       0.00       0.00       0.78       2.75       0.00       2.75        0.85    76.87   0.458
  sub66                      6.00       0.00       0.00       1.74       2.37       0.00       2.37        0.73    69.43   0.395
  sub67                      6.00       0.00       0.00       0.48       3.58       0.00       3.58        1.10   131.19   0.596
  sub68                      6.00       0.00       0.00       0.84       3.23       0.00       3.23        0.99   110.58   0.538
  sub69                      6.00       0.00       0.00       0.90       3.48       0.00       3.48        0.81   109.76   0.581
  sub70                      6.00       3.56       0.00       3.25       4.28       0.00       4.28        0.98    88.75   0.448
  sub71                      6.00       0.00       0.00       0.48       3.11       0.00       3.11        0.74    71.37   0.519
  sub72                      6.00       0.00       0.00       0.42       2.20       0.00       2.20        0.45    33.68   0.367
  sub73                      6.00       4.17       0.00       3.46       4.36       0.00       4.36        1.03    76.27   0.429
  sub74                      6.00       0.00       0.00       4.50       1.05       0.00       1.05        0.42    61.21   0.175
  
  
  ******************
  Node Depth Summary
  ******************
  
  ---------------------------------------------------------------------------------
                                 Average  Maximum  Maximum  Time of Max    Reported
                                   Depth    Depth      HGL   Occurrence   Max Depth
  Node                 Type       Meters   Meters   Meters  days hr:min      Meters
  ---------------------------------------------------------------------------------
  WS02001211           JUNCTION     0.43     0.61     5.45     0  05:30        0.61
  WS02001212           JUNCTION     0.19     0.34     5.40     0  05:30        0.34
  WS02001213           JUNCTION     0.42     0.54     5.31     0  02:45        0.54
  WS02003069           JUNCTION     0.26     0.40     4.99     0  02:44        0.40
  WS02003072           JUNCTION     0.33     0.47     4.84     0  02:45        0.47
  WS02003073           JUNCTION     0.19     0.28     4.34     0  02:46        0.28
  WS02003060           JUNCTION     0.24     0.36     5.29     0  02:44        0.36
  WS02003066           JUNCTION     0.18     0.26     5.82     0  02:40        0.26
  WS02003059           JUNCTION     0.49     0.61     5.30     0  02:45        0.61
  WS02003067           JUNCTION     0.46     0.64     5.96     0  02:40        0.64
  WS02004401           JUNCTION     0.53     0.75     6.75     0  02:36        0.75
  WS02004402           JUNCTION     0.56     0.78     6.74     0  02:36        0.78
  WS02004403           JUNCTION     0.59     0.80     6.73     0  02:36        0.80
  WS02004404           JUNCTION     0.66     0.87     6.72     0  02:37        0.87
  WS02004406           JUNCTION     0.67     0.88     6.71     0  02:37        0.88
  WS02004409           JUNCTION     0.34     0.56     6.33     0  02:39        0.56
  WS02004410           JUNCTION     0.36     0.58     6.30     0  02:39        0.58
  WS02004411           JUNCTION     0.38     0.60     6.28     0  02:39        0.60
  WS02004412           JUNCTION     0.41     0.61     6.25     0  02:40        0.61
  WS02004413           JUNCTION     0.57     0.78     6.25     0  02:40        0.78
  WS02004405           JUNCTION     0.66     0.87     6.72     0  02:37        0.87
  WS02006109           JUNCTION     0.60     0.83     7.45     0  02:33        0.83
  WS02006110           JUNCTION     0.61     0.82     7.40     0  02:33        0.82
  WS02006111           JUNCTION     0.16     0.25     6.96     0  02:33        0.25
  WS02006112           JUNCTION     0.68     0.92     6.81     0  02:35        0.92
  WS02006113           JUNCTION     0.24     0.39     7.28     0  02:34        0.39
  WS02006115           JUNCTION     0.41     0.64     6.78     0  02:36        0.64
  WS02006116           JUNCTION     0.50     0.72     6.76     0  02:36        0.72
  WS02006230           JUNCTION     0.51     0.80     7.54     0  02:33        0.80
  WS02006231           JUNCTION     0.32     0.53     7.66     0  07:16        0.53
  WS02006232           JUNCTION     0.44     0.69     7.73     0  07:15        0.69
  WS02006234           JUNCTION     0.33     0.61     7.77     0  07:15        0.61
  WS02006235           JUNCTION     0.36     0.65     7.82     0  07:15        0.65
  WS02006238           JUNCTION     0.39     0.68     7.82     0  07:15        0.68
  WS02006240           JUNCTION     0.29     0.60     7.89     0  07:50        0.60
  WS02006242           JUNCTION     0.34     0.69     7.95     0  07:50        0.69
  WS02006243           JUNCTION     0.23     0.58     8.00     0  07:50        0.58
  WS02006245           JUNCTION     0.23     0.57     8.06     0  07:50        0.57
  WS02006247           JUNCTION     0.25     0.60     8.10     0  07:50        0.60
  WS02006248           JUNCTION     0.21     0.55     8.13     0  07:50        0.55
  WS02006249           JUNCTION     0.25     0.58     8.18     0  07:50        0.58
  WS02006239           JUNCTION     0.34     0.64     7.85     0  07:14        0.64
  WS02006251           JUNCTION     0.24     0.60     8.27     0  07:50        0.60
  WS02006252           JUNCTION     0.22     0.59     8.83     0  07:10        0.58
  WS02006253           JUNCTION     0.27     0.63     8.27     0  07:50        0.63
  WS02006256           JUNCTION     0.76     1.19     8.13     0  03:00        1.19
  WS02004138           JUNCTION     0.06     0.14     7.39     0  05:20        0.14
  WS02004407           JUNCTION     0.15     0.26     6.57     0  02:37        0.26
  WS02006228           JUNCTION     0.58     0.84     7.49     0  02:33        0.84
  WS02006229           JUNCTION     0.54     0.82     7.51     0  02:33        0.82
  WS02006280           JUNCTION     0.05     0.15     8.42     0  02:18        0.15
  WS02006284           JUNCTION     0.34     0.48     8.88     0  02:18        0.48
  WS02006287           JUNCTION     0.08     0.21     9.17     0  02:17        0.21
  WSF200               JUNCTION     0.14     0.25     5.48     0  02:41        0.25
  HS02004901           JUNCTION     0.11     0.23    10.05     0  02:15        0.23
  HS02004881           JUNCTION     0.01     0.02     9.05     0  02:17        0.02
  HS02004876           JUNCTION     0.04     0.10     9.13     0  02:16        0.10
  HS02004870           JUNCTION     0.01     0.04     9.33     0  02:18        0.04
  HS02004862           JUNCTION     0.01     0.05     9.43     0  02:19        0.05
  HS02004856           JUNCTION     0.07     0.10     9.53     0  02:18        0.10
  HS02004852           JUNCTION     0.01     0.03     9.54     0  02:19        0.03
  HS02004848           JUNCTION     0.01     0.03     9.63     0  02:18        0.03
  HS02004842           JUNCTION     0.33     0.36     9.63     0  02:17        0.36
  HS02004837           JUNCTION     0.03     0.05     9.63     0  02:17        0.05
  HS02004830           JUNCTION     0.04     0.06     9.53     0  02:18        0.06
  HS02004824           JUNCTION     0.02     0.04     9.44     0  02:21        0.04
  HS02004817           JUNCTION     0.42     0.53     9.37     0  02:18        0.53
  HS02004807           JUNCTION     0.11     0.20     9.37     0  02:18        0.20
  HS02004802           JUNCTION     0.15     0.24     9.37     0  02:18        0.24
  HS02004799           JUNCTION     0.10     0.26     9.47     0  02:16        0.26
  HS02004792           JUNCTION     0.02     0.10     9.62     0  02:15        0.10
  HS02004788           JUNCTION     0.02     0.07     9.97     0  02:16        0.07
  HS02004785           JUNCTION     0.03     0.14    10.04     0  02:16        0.14
  HS02004777           JUNCTION     0.13     0.25    10.05     0  02:15        0.25
  HS02004770           JUNCTION     0.10     0.22    10.05     0  02:15        0.22
  HS02004480           JUNCTION     0.06     0.20     9.44     0  02:16        0.20
  HS02004479           JUNCTION     0.10     0.24     9.44     0  02:16        0.24
  HS02004478           JUNCTION     0.05     0.13     9.36     0  02:17        0.13
  YS02001745           JUNCTION     0.44     0.84     8.36     0  06:43        0.84
  YS02001748           JUNCTION     0.78     1.28     8.36     0  06:40        1.28
  YS02001751           JUNCTION     0.96     1.85     8.73     0  03:59        1.48
  YS02001754           JUNCTION     1.20     1.84     8.45     0  03:59        1.75
  YS02001762           JUNCTION     1.39     1.96     8.36     0  06:40        1.96
  YS02001765           JUNCTION     1.34     1.91     8.36     0  06:40        1.91
  YS02001767           JUNCTION     1.31     1.87     8.36     0  06:40        1.87
  YS02001770           JUNCTION     1.30     1.87     8.36     0  06:40        1.86
  YS02001774           JUNCTION     1.37     1.94     8.36     0  06:40        1.94
  YS02001779           JUNCTION     1.13     1.68     8.36     0  06:40        1.67
  YS02001882           JUNCTION     0.28     0.47     7.19     0  02:52        0.47
  YS02001884           JUNCTION     0.37     0.57     7.18     0  02:53        0.57
  YS02001759           JUNCTION     1.42     1.99     8.36     0  06:40        1.99
  YS02001887           JUNCTION     0.45     0.65     7.18     0  02:52        0.65
  YS02001890           JUNCTION     0.48     0.68     7.18     0  02:53        0.68
  YS02001898           JUNCTION     0.25     0.43     7.17     0  02:53        0.43
  YS02001901           JUNCTION     0.36     0.56     7.17     0  02:53        0.56
  YS02001904           JUNCTION     0.34     0.53     7.16     0  02:53        0.53
  YS02001907           JUNCTION     0.67     0.88     7.17     0  02:52        0.88
  YS02001910           JUNCTION     0.46     0.66     7.17     0  02:52        0.66
  YS02001915           JUNCTION     0.27     0.45     7.17     0  02:53        0.45
  YS02001918           JUNCTION     0.08     0.10     7.16     0  03:03        0.10
  YS02001619           JUNCTION     0.92     1.43     8.36     0  06:40        1.43
  YS02001629           JUNCTION     1.25     1.81     8.36     0  06:41        1.81
  YS02001641           JUNCTION     1.36     1.92     8.35     0  06:41        1.92
  YS02001644           JUNCTION     1.36     1.92     8.35     0  06:38        1.92
  YS02001652           JUNCTION     1.21     1.76     8.36     0  06:40        1.76
  YS02001655           JUNCTION     0.98     1.51     8.36     0  06:40        1.50
  YS02001920           JUNCTION     0.17     0.21     7.22     0  03:02        0.21
  YS02001923           JUNCTION     0.06     0.09     7.35     0  03:02        0.09
  YS02001926           JUNCTION     0.14     0.18     7.62     0  03:01        0.18
  YS02001929           JUNCTION     0.06     0.09     7.78     0  03:01        0.09
  YS02001658           JUNCTION     0.73     1.21     8.36     0  06:43        1.21
  YS02001661           JUNCTION     0.53     0.95     8.36     0  06:43        0.95
  YS02001664           JUNCTION     0.21     0.43     8.36     0  06:40        0.43
  YS02001622           JUNCTION     0.94     1.45     8.36     0  06:40        1.45
  YS02001633           JUNCTION     1.34     1.90     8.35     0  06:41        1.90
  YS02001649           JUNCTION     1.39     1.97     8.36     0  06:40        1.96
  YS02001757           JUNCTION     1.52     2.10     8.36     0  06:40        2.09
  YS02001895           JUNCTION     0.25     0.43     7.18     0  02:53        0.43
  YS02001625           JUNCTION     1.21     1.75     8.36     0  06:40        1.75
  YS02163301           JUNCTION     1.28     1.84     8.36     0  06:41        1.84
  YS02163601           JUNCTION     1.39     1.96     8.35     0  06:41        1.96
  YS02164001           JUNCTION     1.34     1.90     8.35     0  06:41        1.89
  YS02001647           JUNCTION     1.20     1.74     8.35     0  06:40        1.74
  YSB1154              JUNCTION     0.23     0.39     9.44     0  02:16        0.39
  YSB6556              JUNCTION     0.13     0.28     9.44     0  02:16        0.27
  YSB1174              JUNCTION     0.19     0.34     9.44     0  02:16        0.34
  YSB1171              JUNCTION     0.38     0.54     9.44     0  02:16        0.54
  YS02006553           JUNCTION     0.67     0.88     7.16     0  02:52        0.88
  YS02006561           JUNCTION     0.14     0.23     6.89     0  03:00        0.23
  YS02006556           JUNCTION     0.64     0.85     7.16     0  02:52        0.85
  YS02006558           JUNCTION     0.69     0.89     7.16     0  02:52        0.89
  YS02001783           JUNCTION     0.33     0.67     6.81     0  02:39        0.61
  YS02001784           JUNCTION     0.38     0.73     6.80     0  02:39        0.72
  YS02001786           JUNCTION     0.38     0.72     6.75     0  02:39        0.72
  YS02001788           JUNCTION     0.37     0.76     6.73     0  02:39        0.72
  YS02001790           JUNCTION     0.59     1.61     7.25     0  02:37        1.03
  YS02001791           JUNCTION     0.70     2.72     8.19     0  02:36        1.16
  YS02001793           JUNCTION     1.18     2.21     7.04     0  02:33        1.78
  WS02004139           JUNCTION     0.36     0.55     5.46     0  05:30        0.55
  WSC                  OUTFALL      0.19     0.28     0.95     0  02:46        0.28
  3                    OUTFALL      0.04     0.19     6.19     0  03:00        0.19
  4                    OUTFALL      0.00     0.08     7.08     0  07:50        0.08
  5                    OUTFALL      0.00     0.00     5.00     0  00:00        0.00
  JK-storage           STORAGE      4.71     5.80     6.60     0  02:38        5.80
  CC-storage           STORAGE      0.80     1.36     8.36     0  06:42        1.36
  XR-storage           STORAGE      7.68     7.72     5.72     0  00:29        7.72
  
  
  *******************
  Node Inflow Summary
  *******************
  
  -------------------------------------------------------------------------------------------------
                                  Maximum  Maximum                  Lateral       Total        Flow
                                  Lateral    Total  Time of Max      Inflow      Inflow     Balance
                                   Inflow   Inflow   Occurrence      Volume      Volume       Error
  Node                 Type           LPS      LPS  days hr:min    10^6 ltr    10^6 ltr     Percent
  -------------------------------------------------------------------------------------------------
  WS02001211           JUNCTION      7.35   197.50     0  05:30       0.207        1.69       0.814
  WS02001212           JUNCTION      0.00   197.33     0  05:30           0        1.68       0.235
  WS02001213           JUNCTION      0.00   197.27     0  05:30           0        1.68       0.674
  WS02003069           JUNCTION      0.32   490.29     0  02:44     0.00902        5.69       0.196
  WS02003072           JUNCTION      0.00   490.13     0  02:45           0        5.68       0.284
  WS02003073           JUNCTION      1.82   491.70     0  02:45      0.0514        5.71       0.290
  WS02003060           JUNCTION     16.53   489.89     0  02:43       0.466        5.72       0.194
  WS02003066           JUNCTION      0.00   397.84     0  02:40           0        3.59       0.086
  WS02003059           JUNCTION      0.00   197.09     0  05:31           0         1.7       1.337
  WS02003067           JUNCTION      0.00   397.81     0  02:40           0         3.6       0.198
  WS02004401           JUNCTION      0.00   407.21     0  02:35           0         3.8       0.548
  WS02004402           JUNCTION      0.00   406.09     0  02:36           0        3.78       0.518
  WS02004403           JUNCTION      0.00   405.31     0  02:36           0        3.76       0.473
  WS02004404           JUNCTION      0.16   405.03     0  02:36     0.00457        3.75       0.358
  WS02004406           JUNCTION      0.00   404.62     0  02:36           0        3.72       0.879
  WS02004409           JUNCTION      0.00   404.25     0  02:37           0        3.68       0.348
  WS02004410           JUNCTION      0.00   402.05     0  02:38           0        3.67       0.384
  WS02004411           JUNCTION      0.00   400.09     0  02:38           0        3.65       0.390
  WS02004412           JUNCTION      0.00   398.83     0  02:39           0        3.64       0.426
  WS02004413           JUNCTION      0.00   398.08     0  02:40           0        3.62       0.659
  WS02004405           JUNCTION      0.04   404.90     0  02:36     0.00107        3.74       0.538
  WS02006109           JUNCTION      1.23   408.25     0  02:33      0.0347        3.89       0.345
  WS02006110           JUNCTION      0.00   408.27     0  02:33           0        3.88       0.565
  WS02006111           JUNCTION      0.00   417.74     0  02:33           0        3.85       0.131
  WS02006112           JUNCTION      9.50   414.81     0  02:33       0.027        3.87       0.763
  WS02006113           JUNCTION      0.00   408.48     0  02:34           0        3.86       0.274
  WS02006115           JUNCTION      0.00   411.64     0  02:34           0        3.84       0.531
  WS02006116           JUNCTION      0.00   408.89     0  02:35           0        3.82       0.458
  WS02006230           JUNCTION     10.28   366.13     0  07:14        0.29        2.98       0.393
  WS02006231           JUNCTION      0.00   358.88     0  07:15           0         2.7       0.504
  WS02006232           JUNCTION      0.00   359.73     0  07:15           0        2.72       0.668
  WS02006234           JUNCTION      0.00   360.18     0  07:15           0        2.72       0.279
  WS02006235           JUNCTION      0.00   364.20     0  07:13           0         2.8       0.497
  WS02006238           JUNCTION      0.00   336.01     0  07:50           0        1.85       0.001
  WS02006240           JUNCTION      0.00   337.09     0  07:48           0        1.81       0.834
  WS02006242           JUNCTION      0.00   340.40     0  07:42           0        1.81       1.076
  WS02006243           JUNCTION      0.00   347.36     0  07:41           0         1.8       0.264
  WS02006245           JUNCTION      0.00   351.93     0  07:41           0        1.82       1.147
  WS02006247           JUNCTION      0.00   355.56     0  07:41           0        1.83       0.629
  WS02006248           JUNCTION      0.00   359.16     0  07:41           0        1.83       0.270
  WS02006249           JUNCTION      0.00   400.29     0  07:49           0        1.89       1.048
  WS02006239           JUNCTION      0.00   336.32     0  07:48           0        1.82       0.043
  WS02006251           JUNCTION      0.08   401.50     0  07:41     0.00217        1.93       0.678
  WS02006252           JUNCTION      0.00   400.00     0  07:40           0        1.76       0.032
  WS02006253           JUNCTION      1.44    42.33     0  02:17     0.00349       0.183       4.835
  WS02006256           JUNCTION      0.00   599.84     0  03:00           0        1.82       0.143
  WS02004138           JUNCTION      0.00   190.00     0  05:20           0        1.48      -0.069
  WS02004407           JUNCTION      0.00   404.39     0  02:37           0        3.68       0.181
  WS02006228           JUNCTION      0.00   407.04     0  02:33           0        3.87       0.305
  WS02006229           JUNCTION      0.00   407.02     0  02:33           0        3.89       0.399
  WS02006280           JUNCTION      0.00   216.68     0  02:18           0       0.924       0.008
  WS02006284           JUNCTION      0.10   216.67     0  02:18      0.0027       0.925       0.115
  WS02006287           JUNCTION      0.00   216.56     0  02:17           0       0.923       0.079
  WSF200               JUNCTION      0.00   397.83     0  02:40           0        3.59       0.067
  HS02004901           JUNCTION     11.75    11.75     0  02:10      0.0325      0.0326       5.696
  HS02004881           JUNCTION      4.76    41.22     0  02:17      0.0142       0.149       0.091
  HS02004876           JUNCTION      7.61    36.76     0  02:17      0.0272       0.135       0.391
  HS02004870           JUNCTION      8.41    29.30     0  02:17      0.0268       0.108       0.099
  HS02004862           JUNCTION      6.94    21.43     0  02:18      0.0324      0.0817       0.205
  HS02004856           JUNCTION      6.23    14.54     0  02:17      0.0202      0.0507       2.918
  HS02004852           JUNCTION      0.00     8.69     0  02:18           0      0.0306       0.166
  HS02004848           JUNCTION     13.89    13.89     0  02:20      0.0639      0.0639       0.070
  HS02004842           JUNCTION      0.00     5.68     0  02:30           0      0.0463      39.056
  HS02004837           JUNCTION     19.86    24.67     0  02:16       0.226       0.259       0.305
  HS02004830           JUNCTION      0.15    24.80     0  02:17     0.00423       0.249       0.496
  HS02004824           JUNCTION     15.66    40.27     0  02:21      0.0837       0.332       0.163
  HS02004817           JUNCTION      0.60    40.87     0  02:21      0.0169       0.348       5.025
  HS02004807           JUNCTION     15.82    55.30     0  02:19      0.0493       0.381       1.122
  HS02004802           JUNCTION      0.00    55.62     0  02:20           0       0.377       1.091
  HS02004799           JUNCTION     12.19   137.52     0  02:15      0.0399       0.481       0.476
  HS02004792           JUNCTION     54.38   125.57     0  02:15       0.174       0.442       0.093
  HS02004788           JUNCTION     18.21    73.12     0  02:15       0.102       0.269       0.143
  HS02004785           JUNCTION      0.15    55.24     0  02:15     0.00423       0.169       0.288
  HS02004777           JUNCTION      0.03    55.54     0  02:13    0.000846       0.169       3.164
  HS02004770           JUNCTION     46.08    56.60     0  02:12       0.139        0.17       1.861
  HS02004480           JUNCTION      0.00   162.20     0  02:16           0       0.562       0.130
  HS02004479           JUNCTION      0.00    25.16     0  02:17           0      0.0929       0.791
  HS02004478           JUNCTION      0.00   216.54     0  02:17           0       0.923       0.067
  YS02001745           JUNCTION     79.77   195.12     0  03:58       0.861       0.896       1.125
  YS02001748           JUNCTION      0.04   256.77     0  03:56     0.00127       0.908       2.688
  YS02001751           JUNCTION      0.01   276.64     0  03:58     0.00031        0.85       2.939
  YS02001754           JUNCTION      0.26   131.39     0  03:51     0.00733       0.814       3.239
  YS02001762           JUNCTION      0.00   106.57     0  02:54           0       0.923       2.517
  YS02001765           JUNCTION      0.00   108.53     0  02:36           0       0.927       2.850
  YS02001767           JUNCTION      0.54   119.55     0  02:48      0.0151       0.949       4.037
  YS02001770           JUNCTION    102.39   119.22     0  02:49           1        1.02       3.413
  YS02001774           JUNCTION      0.00    42.44     0  02:14           0      0.0704      60.565
  YS02001779           JUNCTION      0.01    27.05     0  03:39    0.000141      0.0296     113.625
  YS02001882           JUNCTION      0.00     4.17     0  02:09           0     0.00548      44.757
  YS02001884           JUNCTION      0.00    11.60     0  02:06           0      0.0219      28.873
  YS02001759           JUNCTION    100.07   207.34     0  02:36       0.937        1.82       1.339
  YS02001887           JUNCTION    131.64   131.64     0  02:42        1.12        1.13       0.643
  YS02001890           JUNCTION      0.00   130.66     0  02:47           0         1.1       0.720
  YS02001898           JUNCTION      0.00   131.10     0  02:54           0        1.09       0.204
  YS02001901           JUNCTION      0.00   131.65     0  02:54           0        1.09       0.512
  YS02001904           JUNCTION      0.00   132.04     0  02:53           0        1.09       0.476
  YS02001907           JUNCTION      0.00   241.98     0  02:53           0        2.34       0.956
  YS02001910           JUNCTION      0.00   109.80     0  02:53           0        1.26       0.818
  YS02001915           JUNCTION     71.39   107.58     0  03:01       0.736        1.26       0.366
  YS02001918           JUNCTION      0.00    36.54     0  03:02           0       0.527       0.220
  YS02001619           JUNCTION     69.43    69.43     0  02:58       0.726       0.726       1.828
  YS02001629           JUNCTION      0.00   121.06     0  03:56           0       0.649       4.935
  YS02001641           JUNCTION      0.00   148.28     0  03:01           0        1.38       1.668
  YS02001644           JUNCTION     75.80   226.26     0  03:01       0.826        2.18       1.272
  YS02001652           JUNCTION      0.00   116.85     0  02:52           0       0.752       3.397
  YS02001655           JUNCTION      0.15   175.40     0  03:53     0.00434       0.785       3.380
  YS02001920           JUNCTION      2.87    36.56     0  03:02      0.0809       0.529       0.393
  YS02001923           JUNCTION      0.04    33.69     0  03:01     0.00106       0.448       0.069
  YS02001926           JUNCTION      0.05    33.72     0  03:01     0.00147       0.449       0.491
  YS02001929           JUNCTION     33.68    33.68     0  03:01       0.448       0.448       0.068
  YS02001658           JUNCTION      0.00   189.84     0  03:50           0       0.823       3.030
  YS02001661           JUNCTION      0.00   158.42     0  03:55           0       0.833       2.339
  YS02001664           JUNCTION     93.34    93.34     0  02:45       0.818       0.818       0.400
  YS02001622           JUNCTION      0.00    78.61     0  04:00           0       0.718       4.732
  YS02001633           JUNCTION     77.07   154.80     0  02:56        0.85        1.45       2.350
  YS02001649           JUNCTION      0.00   311.54     0  02:58           0         2.8       1.406
  YS02001757           JUNCTION      0.00   578.98     0  02:59           0        5.31       1.801
  YS02001895           JUNCTION      0.00   130.72     0  02:54           0        1.09       0.345
  YS02001625           JUNCTION      0.00   121.79     0  03:56           0       0.691       6.111
  YS02163301           JUNCTION      0.00    81.32     0  02:56           0       0.623       4.226
  YS02163601           JUNCTION      0.11   147.76     0  02:45      0.0031        1.41       2.265
  YS02164001           JUNCTION      0.00   146.61     0  02:45           0        1.39       1.657
  YS02001647           JUNCTION      0.00   227.67     0  03:01           0        2.11       1.453
  YSB1154              JUNCTION     13.53    13.53     0  02:15      0.0483      0.0496       2.997
  YSB6556              JUNCTION      0.00    13.53     0  02:17           0      0.0506       2.525
  YSB1174              JUNCTION     13.37    13.37     0  02:09      0.0352      0.0362       3.679
  YSB1171              JUNCTION      0.00    25.15     0  02:15           0      0.0923       7.352
  YS02006553           JUNCTION      0.00   241.18     0  02:53           0        2.32       0.620
  YS02006561           JUNCTION      0.00   357.83     0  02:52           0        3.29       0.018
  YS02006556           JUNCTION      0.00   240.24     0  02:53           0        2.33       0.447
  YS02006558           JUNCTION    111.46   351.02     0  02:53        1.02        3.32       0.138
  YS02001783           JUNCTION      0.00   350.14     0  02:53           0        3.29       0.074
  YS02001784           JUNCTION      1.06   405.29     0  02:39      0.0299        3.32       0.138
  YS02001786           JUNCTION      0.06   397.13     0  02:40     0.00159        3.31       0.201
  YS02001788           JUNCTION      0.07   427.97     0  03:00       0.002        3.31       0.218
  YS02001790           JUNCTION      0.15   477.87     0  03:00     0.00437        3.31       0.454
  YS02001791           JUNCTION      0.00   506.18     0  03:00           0         3.3       0.417
  YS02001793           JUNCTION      0.00   510.03     0  03:00           0         3.3       0.518
  WS02004139           JUNCTION      0.32   190.32     0  05:20     0.00905         1.5       0.695
  WSC                  OUTFALL       0.00   491.24     0  02:46           0        5.69       0.000
  3                    OUTFALL       0.00   452.06     0  03:00           0       0.825       0.000
  4                    OUTFALL       0.00    62.16     0  07:50           0      0.0372       0.000
  5                    OUTFALL       0.00     0.00     0  00:00           0           0       0.000 ltr
  JK-storage           STORAGE       0.00   533.25     0  02:32           0        3.43       0.529
  CC-storage           STORAGE       0.00   579.09     0  02:59           0        5.22       1.180
  XR-storage           STORAGE     329.23   329.23     0  02:54        7.08        7.68       0.003
  
  
  **********************
  Node Surcharge Summary
  **********************
  
  Surcharging occurs when water rises above the top of the highest conduit.
  ---------------------------------------------------------------------
                                               Max. Height   Min. Depth
                                   Hours       Above Crown    Below Rim
  Node                 Type      Surcharged         Meters       Meters
  ---------------------------------------------------------------------
  WS02006109           JUNCTION        0.10          0.011        1.809
  WS02006252           JUNCTION        0.49          0.185        0.915
  WS02006228           JUNCTION        0.09          0.009        2.191
  YS02001748           JUNCTION        2.70          0.200        0.990
  YS02001751           JUNCTION        3.59          0.848        0.352
  YS02001754           JUNCTION        4.35          0.788        0.362
  YS02001762           JUNCTION        5.18          0.958        0.192
  YS02001765           JUNCTION        5.08          0.909        0.191
  YS02001767           JUNCTION        4.96          0.870        0.160
  YS02001770           JUNCTION        4.80          0.836        0.084
  YS02001774           JUNCTION        5.14          0.939        0.111
  YS02001779           JUNCTION        4.21          0.675        0.005
  YS02001759           JUNCTION        5.23          0.993        0.217
  YS02001619           JUNCTION        3.45          0.427        0.183
  YS02001629           JUNCTION        3.45          0.426        0.044
  YS02001641           JUNCTION        5.12          0.916        0.184
  YS02001644           JUNCTION        5.13          0.920        0.000
  YS02001652           JUNCTION        4.45          0.730        0.400
  YS02001655           JUNCTION        3.65          0.506        0.694
  YS02001658           JUNCTION        2.76          0.214        1.086
  YS02001622           JUNCTION        3.51          0.452        0.168
  YS02001633           JUNCTION        5.04          0.881        0.179
  YS02001649           JUNCTION        5.19          0.966        0.084
  YS02001757           JUNCTION        5.36          1.096        0.114
  YS02001625           JUNCTION        4.52          0.752        0.028
  YS02163301           JUNCTION        4.89          0.838        0.192
  YS02163601           JUNCTION        5.19          0.956        0.124
  YS02164001           JUNCTION        5.08          0.895        0.205
  YS02001647           JUNCTION        4.50          0.744        0.156
  YS02001790           JUNCTION        3.19          0.806        0.351
  YS02001791           JUNCTION        3.68          1.920        0.000
  YS02001793           JUNCTION        4.57          1.211        1.389
  
  
  *********************
  Node Flooding Summary
  *********************
  
  Flooding refers to all water that overflows a node, whether it ponds or not.
  --------------------------------------------------------------------------
                                                             Total   Maximum
                                 Maximum   Time of Max       Flood    Ponded
                        Hours       Rate    Occurrence      Volume     Depth
  Node                 Flooded       LPS   days hr:min    10^6 ltr    Meters
  --------------------------------------------------------------------------
  YS02001644              0.20     73.89      0  06:45       0.030     0.000
  YS02001791              0.01    193.80      0  02:36       0.000     0.000
  JK-storage              2.50    400.42      0  02:40       1.305     0.000
  XR-storage              7.35    328.91      0  03:00       5.276     0.000
  
  
  **********************
  Storage Volume Summary
  **********************
  
  --------------------------------------------------------------------------------------------------
                         Average     Avg  Evap Exfil       Maximum     Max    Time of Max    Maximum
                          Volume    Pcnt  Pcnt  Pcnt        Volume    Pcnt     Occurrence    Outflow
  Storage Unit           1000 m3    Full  Loss  Loss       1000 m3    Full    days hr:min        LPS
  --------------------------------------------------------------------------------------------------
  JK-storage               0.237      81     0     0         0.291     100       0  02:38     599.84
  CC-storage               2.238      14     0     0         3.786      24       0  06:42     400.00
  XR-storage               0.922      99     0     0         0.926     100       0  00:29     190.00
  
  
  ***********************
  Outfall Loading Summary
  ***********************
  
  -----------------------------------------------------------
                         Flow       Avg       Max       Total
                         Freq      Flow      Flow      Volume
  Outfall Node           Pcnt       LPS       LPS    10^6 ltr
  -----------------------------------------------------------
  WSC                  100.00    235.06    491.24       5.695
  3                     38.52    142.66    452.06       0.825
  4                      5.27     24.25     62.16       0.037
  5                      0.00      0.00      0.00       0.000
  -----------------------------------------------------------
  System                35.95    401.97    801.55       6.557
  
  
  ********************
  Link Flow Summary
  ********************
  
  -----------------------------------------------------------------------------
                                 Maximum  Time of Max   Maximum    Max/    Max/
                                  |Flow|   Occurrence   |Veloc|    Full    Full
  Link                 Type          LPS  days hr:min     m/sec    Flow   Depth
  -----------------------------------------------------------------------------
  WS02003066WSF200     CONDUIT    397.83     0  02:40      2.63    0.07    0.19
  WS02006287WS02006284 CONDUIT    216.58     0  02:18      1.65    0.10    0.22
  WS02006284WS02006280 CONDUIT    216.68     0  02:18      1.89    0.09    0.20
  WS02006280WS02006229 CONDUIT    216.68     0  02:18      3.04    0.05    0.15
  WS02006229WS02006228 CONDUIT    407.04     0  02:33      0.81    1.35    1.00
  WS02006256WS02006235 CONDUIT    150.00     0  00:15      2.14    1.59    1.00
  WS02006253WS02006251 CONDUIT     42.47     0  02:16      0.50    0.13    0.87
  WS02006252WS02006251 CONDUIT    400.31     0  07:40      3.19    1.47    1.00
  WS02006251WS02006249 CONDUIT    400.29     0  07:49      1.18    1.15    0.84
  WS02006249WS02006248 CONDUIT    359.16     0  07:41      1.18    1.97    0.79
  WS02006248WS02006247 CONDUIT    355.56     0  07:41      1.15    0.77    0.81
  WS02006247WS02006245 CONDUIT    351.93     0  07:41      1.13    2.79    0.83
  WS02006245WS02006243 CONDUIT    347.36     0  07:41      1.19    1.03    0.82
  WS02006243WS02006242 CONDUIT    340.40     0  07:42      1.08    0.73    0.88
  WS02006242WS02006240 CONDUIT    337.09     0  07:48      1.00    1.34    0.91
  WS02006240WS02006239 CONDUIT    336.32     0  07:48      1.10    1.06    0.86
  WS02006239WS02006238 CONDUIT    336.01     0  07:50      0.99    1.08    0.93
  WS02006238WS02006235 CONDUIT    335.96     0  07:50      0.99    0.75    0.95
  WS02006235WS02006234 CONDUIT    360.18     0  07:15      1.14    3.80    0.88
  WS02006234WS02006232 CONDUIT    359.73     0  07:15      0.97    0.73    0.93
  WS02006232WS02006231 CONDUIT    358.88     0  07:15      1.02    0.75    0.86
  WS02006231WS02006230 CONDUIT    355.85     0  07:14      1.36    5.40    0.67
  WS02006230WS02006229 CONDUIT    362.67     0  07:16      0.94    8.07    1.00
  WS02006228WS02006109 CONDUIT    407.02     0  02:33      0.81    1.78    1.00
  WS02006116WS02004401 CONDUIT    407.21     0  02:35      0.79    0.56    0.73
  WS02006115WS02006116 CONDUIT    408.89     0  02:35      0.94    0.52    0.65
  WS02006113WS02006111 CONDUIT    417.74     0  02:33      2.23    0.50    0.40
  WS02006112WS02006115 CONDUIT    411.64     0  02:34      0.64    0.24    0.78
  WS02006111WS02006112 CONDUIT    409.59     0  02:33      1.27    0.19    0.65
  WS02006110WS02006113 CONDUIT    408.48     0  02:34      1.02    0.37    0.74
  WS02006109WS02006110 CONDUIT    408.27     0  02:33      0.83    0.78    0.94
  WS02004411WS02004412 CONDUIT    398.83     0  02:39      0.81    0.57    0.60
  WS02004401WS02004402 CONDUIT    406.09     0  02:36      0.83    0.49    0.76
  WS02004413WS02003067 CONDUIT    397.81     0  02:40      0.95    0.17    0.53
  WS02004412WS02004413 CONDUIT    398.08     0  02:40      0.68    0.27    0.69
  WS02004410WS02004411 CONDUIT    400.09     0  02:38      0.83    0.55    0.59
  WS02004409WS02004410 CONDUIT    402.05     0  02:38      0.87    0.52    0.57
  WS02004407WS02004409 CONDUIT    404.25     0  02:37      1.35    0.14    0.41
  WS02004406WS02004407 CONDUIT    404.39     0  02:37      0.88    0.18    0.57
  WS02004405WS02004406 CONDUIT    404.62     0  02:36      0.77    0.80    0.87
  WS02004404WS02004405 CONDUIT    404.87     0  02:36      0.96    3.97    0.87
  WS02004403WS02004404 CONDUIT    404.87     0  02:36      0.85    0.29    0.84
  WS02004402WS02004403 CONDUIT    405.31     0  02:36      0.87    0.58    0.79
  WS02004139WS02001211 CONDUIT    190.15     0  05:30      0.40    0.24    0.44
  WS02004138WS02004139 CONDUIT    190.00     0  05:20      1.02    0.04    0.32
  WS02003067WS02003066 CONDUIT    397.84     0  02:40      1.02    0.13    0.38
  WS02001213WS02003059 CONDUIT    197.09     0  05:31      0.46    0.33    0.57
  WS02001212WS02001213 CONDUIT    197.27     0  05:30      1.03    0.30    0.29
  WS02001211WS02001212 CONDUIT    197.33     0  05:30      0.54    0.15    0.48
  WS02003072WS02003073 CONDUIT    489.88     0  02:45      1.38    1.06    0.35
  WS02003069WS02003072 CONDUIT    490.13     0  02:45      1.32    0.24    0.36
  WS02003060WS02003069 CONDUIT    489.97     0  02:44      1.59    0.19    0.32
  WS02003059WS02003060 CONDUIT    196.91     0  05:31      0.65    0.13    0.49
  HS02004901HS02004770 CONDUIT     10.92     0  02:14      0.05    0.04    0.33
  HS02004876HS02004881 CONDUIT     36.84     0  02:17      0.59    0.39    0.09
  HS02004870HS02004876 CONDUIT     29.28     0  02:18      0.41    0.02    0.10
  HS02004842HS02004848 CONDUIT      5.68     0  02:30      0.03    0.00    0.28
  HS02004837HS02004842 CONDUIT      5.87     0  02:31      0.42    0.00    0.29
  HS02004830HS02004837 CONDUIT     24.65     0  02:17      0.45    0.02    0.08
  HS02004824HS02004830 CONDUIT     24.80     0  02:18      0.49    0.03    0.07
  HS02004817HS02004824 CONDUIT     40.27     0  02:21      0.17    0.02    0.40
  HS02004770HS02004777 CONDUIT     55.51     0  02:13      0.23    0.10    0.34
  HS02004799HS02004480 CONDUIT    137.29     0  02:16      0.61    0.17    0.32
  HS02004792HS02004799 CONDUIT    125.49     0  02:15      0.70    0.08    0.26
  HS02004788HS02004792 CONDUIT     73.05     0  02:16      0.85    0.05    0.12
  HS02004785HS02004788 CONDUIT     55.14     0  02:16      0.53    0.42    0.15
  HS02004777HS02004785 CONDUIT     55.09     0  02:15      0.28    0.07    0.28
  HS02004480HS02004478 CONDUIT    162.12     0  02:16      0.98    0.68    0.24
  HS02004479HS02004480 CONDUIT     25.41     0  02:18      0.15    0.02    0.31
  HS02004862HS02004870 CONDUIT     21.39     0  02:19      0.48    0.02    0.06
  HS02004848HS02004852 CONDUIT      8.69     0  02:18      0.32    0.01    0.04
  HS02004856HS02004862 CONDUIT     14.51     0  02:18      0.35    0.01    0.06
  HS02004852HS02004856 CONDUIT      8.65     0  02:19      0.13    0.01    0.09
  HS02004802HS02004478 CONDUIT     56.03     0  02:21      0.31    0.05    0.26
  HS02004478WS02006287 CONDUIT    216.56     0  02:17      1.35    0.06    0.18
  HS02004817HS02004807 CONDUIT     41.45     0  02:23      0.12    0.02    0.52
  HS02004807HS02004802 CONDUIT     55.62     0  02:20      0.26    0.11    0.31
  YS02001759YS02001757 CONDUIT    207.97     0  02:52      0.26    0.15    1.00
  YS02001762YS02001759 CONDUIT    109.65     0  02:36      0.18    0.13    1.00
  YS02001765YS02001762 CONDUIT    106.57     0  02:54      0.23    0.10    1.00
  YS02001770YS02001767 CONDUIT    119.01     0  02:48      0.30    0.47    1.00
  YS02001774YS02001770 CONDUIT     42.44     0  02:14      0.14    0.03    1.00
  YS02001779YS02001774 CONDUIT     27.05     0  03:39      0.07    0.01    1.00
  YS02001649YS02001757 CONDUIT    312.65     0  02:58      0.40    0.19    1.00
  YS02001767YS02001765 CONDUIT    108.53     0  02:36      0.25    0.14    1.00
  YS02006561YS02001783 CONDUIT    350.14     0  02:53      1.84    0.18    0.56
  YS02001783YS02001784 CONDUIT    404.23     0  02:39      1.30    0.56    0.84
  YS02001784YS02001785 CONDUIT    397.07     0  02:40      1.42    0.92    0.91
  YS02001788YS02001790 CONDUIT    477.72     0  03:00      1.88    0.35    0.97
  YS02001790YS02001791 CONDUIT    506.18     0  03:00      2.21    0.55    1.00
  YS02001791YS02001793 CONDUIT    510.03     0  03:00      4.32    0.22    1.00
  YS02001910YS02001907 CONDUIT    109.90     0  02:59      0.49    0.06    0.76
  YS02001786YS02001788 CONDUIT    427.90     0  03:00      1.92    0.82    0.91
  YS02001915YS02001910 CONDUIT    109.80     0  02:53      0.45    0.05    0.55
  YS02001918YS02001915 CONDUIT     36.52     0  03:03      0.44    0.02    0.27
  YS02001923YS02001920 CONDUIT     33.69     0  03:02      0.47    0.02    0.15
  YS02001926YS02001923 CONDUIT     33.65     0  03:01      0.51    0.05    0.14
  YS02001929YS02001926 CONDUIT     33.67     0  03:01      0.54    0.02    0.13
  YS02001920YS02001918 CONDUIT     36.54     0  03:02      0.48    0.04    0.15
  YS02001629YS02163301 CONDUIT     81.32     0  02:56      0.11    0.10    1.00
  YS02001619YS02001622 CONDUIT     78.61     0  04:00      0.66    0.12    1.00
  YS02001622YS02001625 CONDUIT    121.79     0  03:56      0.25    0.06    1.00
  YS02001625YS02001629 CONDUIT    121.06     0  03:56      0.25    0.06    1.00
  YS02163301YS02001633 CONDUIT     78.01     0  02:56      0.10    0.07    1.00
  YS02163601YS02164001 CONDUIT    146.61     0  02:45      0.19    0.13    1.00
  YS02164001YS02001641 CONDUIT    148.28     0  03:01      0.19    0.20    1.00
  YS02001641YS02001644 CONDUIT    150.89     0  03:01      0.19    0.49    1.00
  YS02001647YS02001649 CONDUIT    231.32     0  02:55      0.30    0.12    1.00
  YS02006553YS02006556 CONDUIT    240.24     0  02:53      0.34    0.21    0.85
  YS02006556YS02006558 CONDUIT    240.27     0  02:53      0.33    0.19    0.87
  YSB6556YSB1171       CONDUIT     13.75     0  02:19      0.06    0.01    0.58
  YS02001907YS02006553 CONDUIT    241.18     0  02:53      0.28    0.28    0.96
  YS02006558YS02006561 CONDUIT    357.83     0  02:52      2.42    0.79    0.52
  YS02001633YS02163601 CONDUIT    147.65     0  02:45      0.19    0.16    1.00
  YS02001644YS02001647 CONDUIT    227.67     0  03:01      0.29    0.13    1.00
  YS02001745YS02001748 CONDUIT    228.68     0  03:53      1.42    0.09    0.92
  YS02001748YS02001751 CONDUIT    259.38     0  03:52      1.10    0.13    1.00
  YS02001751YS02001754 CONDUIT    131.13     0  03:51      0.97    0.06    1.00
  YS02001754YS02001757 CONDUIT    139.17     0  03:51      0.33    0.06    1.00
  YS02001882YS02001884 CONDUIT      4.17     0  02:09      0.06    0.00    0.49
  YS02001884YS02001887 CONDUIT     11.60     0  02:06      0.06    0.02    0.58
  YS02001890YS02001895 CONDUIT    130.72     0  02:54      0.30    0.06    0.55
  YS02001895YS02001898 CONDUIT    131.10     0  02:54      0.48    0.23    0.42
  YS02001898YS02001901 CONDUIT    131.65     0  02:54      0.34    0.08    0.50
  YS02001901YS02001904 CONDUIT    132.04     0  02:53      0.30    0.20    0.55
  YS02001904YS02001907 CONDUIT    132.47     0  02:53      0.22    0.05    0.71
  YS02001887YS02001890 CONDUIT    130.66     0  02:47      0.25    0.22    0.64
  YS02001652YS02001649 CONDUIT    123.61     0  02:37      0.32    0.06    1.00
  YS02001655YS02001652 CONDUIT    116.85     0  02:52      1.04    0.06    1.00
  YS02001658YS02001655 CONDUIT    175.25     0  03:53      1.27    0.07    1.00
  YS02001661YS02001658 CONDUIT    189.84     0  03:50      1.48    0.07    0.94
  YS02001664YS02001661 CONDUIT     93.34     0  02:45      1.16    0.03    0.69
  YSB1154YSB6556       CONDUIT     13.53     0  02:17      0.19    0.02    0.47
  YSB1174YSB1171       CONDUIT     12.43     0  02:11      0.06    0.02    0.59
  YSB1171HS02004479    CONDUIT     25.16     0  02:17      0.54    0.02    0.46
  HS02004881HS02006253 CONDUIT     41.21     0  02:17      1.70    0.01    0.21
  YS02001793JiankangQianchi CONDUIT    533.25     0  02:32      6.30    0.04    1.00
  YS02001757CaochengTiaoxuchi CONDUIT    579.09     0  02:59      1.16    0.25    1.00
  WSF200WS02003060     CONDUIT    397.56     0  02:40      1.93    0.09    0.25
  1                    CONDUIT    491.24     0  02:46      2.73    0.17    0.28
  2                    CONDUIT     62.16     0  07:50      4.24    0.15    0.26
  3                    CONDUIT    452.06     0  03:00      9.62    0.72    0.63
  4                    CONDUIT      0.00     0  00:00      0.00    0.00    0.00
  CC-Pump-1            PUMP       200.00     0  07:40              1.00
  CC-Pump-2            PUMP       200.00     0  07:40              1.00
  JK-Pump-1            PUMP       300.00     0  05:40              1.00
  JK-Pump-2            PUMP       300.00     0  04:10              1.00
  XR-Pump-1            PUMP        95.00     0  00:40              1.00
  XR-Pump-2            PUMP         0.00     0  00:00              0.00
  XR-Pump-3            PUMP        94.98     0  07:20              1.00
  XR-Pump-4            PUMP        95.00     0  02:40              1.00
  
  
  ***************************
  Flow Classification Summary
  ***************************
  
  -------------------------------------------------------------------------------------
                      Adjusted    ---------- Fraction of Time in Flow Class ---------- 
                       /Actual         Up    Down  Sub   Sup   Up    Down  Norm  Inlet 
  Conduit               Length    Dry  Dry   Dry   Crit  Crit  Crit  Crit  Ltd   Ctrl  
  -------------------------------------------------------------------------------------
  WS02003066WSF200        1.00   0.07  0.00  0.00  0.00  0.93  0.00  0.00  0.84  0.00
  WS02006287WS02006284    1.00   0.06  0.02  0.00  0.65  0.27  0.00  0.00  0.77  0.00
  WS02006284WS02006280    1.00   0.07  0.00  0.00  0.00  0.00  0.00  0.93  0.00  0.00
  WS02006280WS02006229    1.00   0.07  0.00  0.00  0.00  0.00  0.00  0.93  0.00  0.00
  WS02006229WS02006228    1.00   0.00  0.00  0.00  1.00  0.00  0.00  0.00  0.00  0.00
  WS02006256WS02006235    1.00   0.01  0.00  0.00  0.99  0.00  0.00  0.00  0.00  0.00
  WS02006253WS02006251    1.00   0.04  0.02  0.00  0.94  0.00  0.00  0.00  0.00  0.00
  WS02006252WS02006251    1.00   0.12  0.05  0.00  0.00  0.00  0.83  0.00  0.00  0.00
  WS02006251WS02006249    1.00   0.00  0.00  0.00  1.00  0.00  0.00  0.00  0.58  0.00
  WS02006249WS02006248    1.00   0.00  0.00  0.00  0.60  0.00  0.39  0.00  0.00  0.00
  WS02006248WS02006247    1.00   0.01  0.00  0.00  0.96  0.00  0.00  0.04  0.50  0.00
  WS02006247WS02006245    1.00   0.01  0.00  0.00  0.95  0.00  0.00  0.04  0.00  0.00
  WS02006245WS02006243    1.00   0.01  0.00  0.00  0.87  0.00  0.00  0.12  0.04  0.00
  WS02006243WS02006242    1.00   0.01  0.01  0.00  0.98  0.00  0.00  0.01  0.47  0.00
  WS02006242WS02006240    1.00   0.01  0.00  0.00  0.98  0.00  0.01  0.00  0.00  0.00
  WS02006240WS02006239    1.00   0.01  0.00  0.00  0.87  0.00  0.00  0.12  0.03  0.00
  WS02006239WS02006238    1.00   0.01  0.00  0.00  0.99  0.00  0.00  0.00  0.09  0.00
  WS02006238WS02006235    1.00   0.01  0.00  0.00  0.99  0.00  0.00  0.00  0.00  0.00
  WS02006235WS02006234    1.00   0.01  0.00  0.00  0.91  0.00  0.08  0.00  0.00  0.00
  WS02006234WS02006232    1.00   0.01  0.00  0.00  0.99  0.00  0.00  0.00  0.11  0.00
  WS02006232WS02006231    1.00   0.01  0.00  0.00  0.99  0.00  0.00  0.00  0.00  0.00
  WS02006231WS02006230    1.00   0.01  0.00  0.00  0.17  0.00  0.82  0.00  0.00  0.00
  WS02006230WS02006229    1.00   0.00  0.00  0.00  0.99  0.00  0.00  0.01  0.00  0.00
  WS02006228WS02006109    1.00   0.00  0.00  0.00  1.00  0.00  0.00  0.00  0.01  0.00
  WS02006116WS02004401    1.00   0.04  0.00  0.00  0.96  0.00  0.00  0.00  0.00  0.00
  WS02006115WS02006116    1.00   0.04  0.00  0.00  0.96  0.00  0.00  0.01  0.00  0.00
  WS02006113WS02006111    1.00   0.02  0.00  0.00  0.00  0.98  0.00  0.00  0.17  0.00
  WS02006112WS02006115    1.00   0.02  0.01  0.00  0.96  0.00  0.01  0.00  0.00  0.00
  WS02006111WS02006112    1.00   0.02  0.00  0.00  0.97  0.00  0.00  0.01  0.95  0.00
  WS02006110WS02006113    1.00   0.00  0.02  0.00  0.98  0.00  0.00  0.00  0.00  0.00
  WS02006109WS02006110    1.00   0.00  0.00  0.00  0.99  0.00  0.00  0.00  0.00  0.00
  WS02004411WS02004412    1.00   0.05  0.00  0.00  0.95  0.00  0.00  0.00  0.00  0.00
  WS02004401WS02004402    1.00   0.04  0.00  0.00  0.96  0.00  0.00  0.00  0.00  0.00
  WS02004413WS02003067    1.00   0.05  0.01  0.00  0.00  0.00  0.94  0.00  0.00  0.00
  WS02004412WS02004413    1.00   0.05  0.00  0.00  0.95  0.00  0.00  0.00  0.01  0.00
  WS02004410WS02004411    1.00   0.05  0.00  0.00  0.95  0.00  0.00  0.00  0.00  0.00
  WS02004409WS02004410    1.00   0.05  0.00  0.00  0.95  0.00  0.00  0.00  0.02  0.00
  WS02004407WS02004409    1.00   0.05  0.00  0.00  0.95  0.00  0.00  0.00  0.92  0.00
  WS02004406WS02004407    1.00   0.00  0.05  0.00  0.95  0.00  0.00  0.00  0.00  0.00
  WS02004405WS02004406    1.00   0.00  0.00  0.00  1.00  0.00  0.00  0.00  0.03  0.00
  WS02004404WS02004405    1.00   0.00  0.00  0.00  1.00  0.00  0.00  0.00  0.00  0.00
  WS02004403WS02004404    1.00   0.00  0.04  0.00  0.96  0.00  0.00  0.00  0.00  0.00
  WS02004402WS02004403    1.00   0.04  0.00  0.00  0.96  0.00  0.00  0.00  0.00  0.00
  WS02004139WS02001211    1.00   0.00  0.00  0.00  1.00  0.00  0.00  0.00  0.00  0.00
  WS02004138WS02004139    1.00   0.00  0.08  0.00  0.91  0.00  0.00  0.00  0.96  0.00
  WS02003067WS02003066    1.00   0.06  0.00  0.00  0.93  0.00  0.00  0.00  0.00  0.00
  WS02001213WS02003059    1.00   0.00  0.00  0.00  1.00  0.00  0.00  0.00  0.00  0.00
  WS02001212WS02001213    1.00   0.03  0.01  0.00  0.40  0.00  0.57  0.00  0.00  0.00
  WS02001211WS02001212    1.00   0.00  0.03  0.00  0.97  0.00  0.00  0.00  0.00  0.00
  WS02003072WS02003073    1.00   0.00  0.00  0.00  0.00  0.00  0.00  1.00  0.00  0.00
  WS02003069WS02003072    1.00   0.00  0.00  0.00  1.00  0.00  0.00  0.00  0.88  0.00
  WS02003060WS02003069    1.00   0.00  0.00  0.00  0.98  0.02  0.00  0.00  0.59  0.00
  WS02003059WS02003060    1.00   0.00  0.00  0.00  1.00  0.00  0.00  0.00  0.06  0.00
  HS02004901HS02004770    1.00   0.06  0.00  0.00  0.94  0.00  0.00  0.00  0.02  0.00
  HS02004876HS02004881    1.00   0.01  0.00  0.00  0.99  0.00  0.00  0.00  0.00  0.00
  HS02004870HS02004876    1.00   0.00  0.00  0.00  0.99  0.00  0.00  0.00  0.95  0.00
  HS02004842HS02004848    1.00   0.00  0.07  0.00  0.93  0.00  0.00  0.00  0.68  0.00
  HS02004837HS02004842    1.00   0.00  0.00  0.00  1.00  0.00  0.00  0.00  0.11  0.00
  HS02004830HS02004837    1.00   0.00  0.00  0.00  1.00  0.00  0.00  0.00  0.99  0.00
  HS02004824HS02004830    1.00   0.00  0.00  0.00  1.00  0.00  0.00  0.00  0.00  0.00
  HS02004817HS02004824    1.00   0.00  0.00  0.00  1.00  0.00  0.00  0.00  1.00  0.00
  HS02004770HS02004777    1.00   0.00  0.06  0.00  0.94  0.00  0.00  0.00  0.07  0.00
  HS02004799HS02004480    1.00   0.00  0.01  0.00  0.92  0.00  0.07  0.00  0.00  0.00
  HS02004792HS02004799    1.00   0.00  0.00  0.00  1.00  0.00  0.00  0.00  0.98  0.00
  HS02004788HS02004792    1.00   0.00  0.00  0.00  1.00  0.00  0.00  0.00  0.98  0.00
  HS02004785HS02004788    1.00   0.00  0.00  0.00  1.00  0.00  0.00  0.00  0.00  0.00
  HS02004777HS02004785    1.00   0.00  0.00  0.00  1.00  0.00  0.00  0.00  0.20  0.00
  HS02004480HS02004478    1.00   0.07  0.00  0.00  0.71  0.00  0.00  0.22  0.00  0.00
  HS02004479HS02004480    1.00   0.02  0.00  0.00  0.98  0.00  0.00  0.00  0.15  0.00
  HS02004862HS02004870    1.00   0.00  0.00  0.00  1.00  0.00  0.00  0.00  0.06  0.00
  HS02004848HS02004852    1.00   0.07  0.00  0.00  0.93  0.00  0.00  0.00  0.71  0.00
  HS02004856HS02004862    1.00   0.00  0.10  0.00  0.90  0.00  0.00  0.00  0.74  0.00
  HS02004852HS02004856    1.00   0.06  0.01  0.00  0.93  0.00  0.00  0.00  0.83  0.00
  HS02004802HS02004478    1.00   0.07  0.01  0.00  0.93  0.00  0.00  0.00  0.01  0.00
  HS02004478WS02006287    1.00   0.08  0.00  0.00  0.83  0.10  0.00  0.00  0.77  0.00
  HS02004817HS02004807    1.00   0.00  0.07  0.00  0.93  0.00  0.00  0.00  0.00  0.00
  HS02004807HS02004802    1.00   0.07  0.00  0.00  0.93  0.00  0.00  0.00  0.01  0.00
  YS02001759YS02001757    1.00   0.00  0.00  0.00  1.00  0.00  0.00  0.00  0.17  0.00
  YS02001762YS02001759    1.00   0.00  0.00  0.00  1.00  0.00  0.00  0.00  0.04  0.00
  YS02001765YS02001762    1.00   0.00  0.00  0.00  1.00  0.00  0.00  0.00  0.22  0.00
  YS02001770YS02001767    1.00   0.00  0.00  0.00  1.00  0.00  0.00  0.00  0.00  0.00
  YS02001774YS02001770    1.00   0.00  0.07  0.00  0.92  0.00  0.00  0.00  0.07  0.00
  YS02001779YS02001774    1.00   0.00  0.00  0.00  1.00  0.00  0.00  0.00  0.26  0.00
  YS02001649YS02001757    1.00   0.00  0.00  0.00  1.00  0.00  0.00  0.00  0.19  0.00
  YS02001767YS02001765    1.00   0.00  0.00  0.00  1.00  0.00  0.00  0.00  0.01  0.00
  YS02006561YS02001783    1.00   0.10  0.00  0.00  0.45  0.44  0.00  0.00  0.73  0.00
  YS02001783YS02001784    1.00   0.00  0.10  0.00  0.90  0.00  0.00  0.00  0.00  0.00
  YS02001784YS02001785    1.00   0.00  0.00  0.00  1.00  0.00  0.00  0.00  0.25  0.00
  YS02001788YS02001790    1.00   0.00  0.00  0.00  0.79  0.21  0.00  0.00  0.43  0.00
  YS02001790YS02001791    1.00   0.00  0.00  0.00  0.74  0.26  0.00  0.00  0.12  0.00
  YS02001791YS02001793    1.00   0.00  0.00  0.00  0.79  0.21  0.00  0.00  0.03  0.00
  YS02001910YS02001907    1.00   0.00  0.00  0.00  0.99  0.00  0.00  0.01  0.13  0.00
  YS02001786YS02001788    1.00   0.00  0.00  0.00  0.65  0.35  0.00  0.00  0.00  0.00
  YS02001915YS02001910    1.00   0.00  0.00  0.00  1.00  0.00  0.00  0.00  0.24  0.00
  YS02001918YS02001915    1.00   0.00  0.00  0.00  0.99  0.00  0.00  0.00  0.81  0.00
  YS02001923YS02001920    1.00   0.00  0.00  0.00  1.00  0.00  0.00  0.00  1.00  0.00
  YS02001926YS02001923    1.00   0.00  0.05  0.00  0.00  0.00  0.95  0.00  0.00  0.00
  YS02001929YS02001926    1.00   0.00  0.06  0.00  0.94  0.00  0.00  0.00  0.87  0.00
  YS02001920YS02001918    1.00   0.00  0.00  0.00  1.00  0.00  0.00  0.00  0.00  0.00
  YS02001629YS02163301    1.00   0.09  0.01  0.00  0.91  0.00  0.00  0.00  0.00  0.00
  YS02001619YS02001622    1.00   0.06  0.00  0.00  0.94  0.00  0.00  0.00  0.00  0.00
  YS02001622YS02001625    1.00   0.06  0.00  0.00  0.94  0.00  0.00  0.00  0.13  0.00
  YS02001625YS02001629    1.00   0.07  0.04  0.00  0.88  0.00  0.02  0.00  0.00  0.00
  YS02163301YS02001633    1.00   0.00  0.09  0.00  0.91  0.00  0.00  0.00  0.00  0.00
  YS02163601YS02164001    1.00   0.00  0.05  0.00  0.95  0.00  0.00  0.00  0.00  0.00
  YS02164001YS02001641    1.00   0.00  0.05  0.00  0.95  0.00  0.00  0.00  0.07  0.00
  YS02001641YS02001644    1.00   0.00  0.00  0.00  1.00  0.00  0.00  0.00  0.00  0.00
  YS02001647YS02001649    1.00   0.00  0.10  0.00  0.90  0.00  0.00  0.00  0.01  0.00
  YS02006553YS02006556    1.00   0.00  0.00  0.00  1.00  0.00  0.00  0.00  0.03  0.00
  YS02006556YS02006558    1.00   0.00  0.00  0.00  1.00  0.00  0.00  0.00  0.00  0.00
  YSB6556YSB1171          1.00   0.02  0.04  0.00  0.94  0.00  0.00  0.00  0.00  0.00
  YS02001907YS02006553    1.00   0.00  0.01  0.00  0.99  0.00  0.00  0.00  0.00  0.00
  YS02006558YS02006561    1.00   0.10  0.00  0.00  0.00  0.90  0.00  0.00  0.71  0.00
  YS02001633YS02163601    1.00   0.00  0.00  0.00  1.00  0.00  0.00  0.00  0.19  0.00
  YS02001644YS02001647    1.00   0.00  0.10  0.00  0.90  0.00  0.00  0.00  0.00  0.00
  YS02001745YS02001748    1.00   0.00  0.00  0.00  0.81  0.02  0.00  0.17  0.12  0.00
  YS02001748YS02001751    1.00   0.00  0.00  0.00  0.97  0.03  0.00  0.00  0.24  0.00
  YS02001751YS02001754    1.00   0.00  0.00  0.00  0.89  0.00  0.00  0.11  0.02  0.00
  YS02001754YS02001757    1.00   0.00  0.00  0.00  1.00  0.00  0.00  0.00  0.26  0.00
  YS02001882YS02001884    1.00   0.08  0.01  0.00  0.91  0.00  0.00  0.00  0.00  0.00
  YS02001884YS02001887    1.00   0.04  0.02  0.00  0.94  0.00  0.00  0.00  0.00  0.00
  YS02001890YS02001895    1.00   0.00  0.09  0.00  0.91  0.00  0.00  0.00  0.00  0.00
  YS02001895YS02001898    1.00   0.09  0.00  0.00  0.90  0.00  0.01  0.00  0.00  0.00
  YS02001898YS02001901    1.00   0.09  0.01  0.00  0.91  0.00  0.00  0.00  0.02  0.00
  YS02001901YS02001904    1.00   0.09  0.00  0.00  0.91  0.00  0.00  0.00  0.00  0.00
  YS02001904YS02001907    1.00   0.00  0.09  0.00  0.91  0.00  0.00  0.00  0.00  0.00
  YS02001887YS02001890    1.00   0.00  0.00  0.00  0.99  0.00  0.01  0.00  0.00  0.00
  YS02001652YS02001649    1.00   0.00  0.00  0.00  1.00  0.00  0.00  0.00  0.25  0.00
  YS02001655YS02001652    1.00   0.00  0.00  0.00  0.89  0.00  0.00  0.11  0.02  0.00
  YS02001658YS02001655    1.00   0.00  0.08  0.00  0.89  0.04  0.00  0.00  0.11  0.00
  YS02001661YS02001658    1.00   0.08  0.00  0.00  0.81  0.11  0.00  0.00  0.17  0.00
  YS02001664YS02001661    1.00   0.06  0.00  0.00  0.75  0.18  0.00  0.00  0.45  0.00
  YSB1154YSB6556          1.00   0.06  0.00  0.00  0.94  0.00  0.00  0.00  0.02  0.00
  YSB1174YSB1171          1.00   0.04  0.02  0.00  0.95  0.00  0.00  0.00  0.00  0.00
  YSB1171HS02004479       1.00   0.02  0.00  0.00  0.96  0.00  0.00  0.02  0.13  0.00
  HS02004881HS02006253    1.00   0.03  0.00  0.00  0.37  0.03  0.00  0.57  0.22  0.00
  YS02001793JiankangQianchi    1.00   0.00  0.00  0.00  0.93  0.07  0.00  0.00  0.15  0.00
  YS02001757CaochengTiaoxuchi    1.00   0.00  0.12  0.00  0.88  0.00  0.00  0.00  0.00  0.00
  WSF200WS02003060        1.00   0.00  0.07  0.00  0.30  0.64  0.00  0.00  0.49  0.00
  1                       1.00   0.00  0.00  0.00  0.00  1.00  0.00  0.00  0.30  0.00
  2                       1.00   0.95  0.00  0.00  0.00  0.05  0.00  0.00  0.01  0.00
  3                       1.00   0.61  0.00  0.00  0.00  0.39  0.00  0.00  0.05  0.00
  4                       1.00   1.00  0.00  0.00  0.00  0.00  0.00  0.00  0.00  0.00
  
  
  *************************
  Conduit Surcharge Summary
  *************************
  
  ----------------------------------------------------------------------------
                                                           Hours        Hours 
                         --------- Hours Full --------   Above Full   Capacity
  Conduit                Both Ends  Upstream  Dnstream   Normal Flow   Limited
  ----------------------------------------------------------------------------
  WS02006229WS02006228        0.09      0.12      0.09      0.66         0.09
  WS02006256WS02006235        3.68      3.68      6.36      1.85         0.01
  WS02006252WS02006251        0.28      0.28      0.49      0.43         0.01
  WS02006251WS02006249        0.01      0.01      0.01      0.25         0.01
  WS02006249WS02006248        0.01      0.01      0.01      1.26         0.01
  WS02006247WS02006245        0.01      0.01      0.01      1.84         0.01
  WS02006245WS02006243        0.01      0.01      0.01      0.15         0.01
  WS02006242WS02006240        0.01      0.01      0.01      0.40         0.01
  WS02006240WS02006239        0.01      0.01      0.01      0.13         0.01
  WS02006239WS02006238        0.01      0.01      0.01      0.12         0.01
  WS02006235WS02006234        0.01      0.01      0.01      3.55         0.01
  WS02006231WS02006230        0.01      0.01      0.01      3.93         0.01
  WS02006230WS02006229        0.31      0.44      0.31      4.57         0.31
  WS02006228WS02006109        0.10      0.17      0.10      1.83         0.10
  WS02006111WS02006112        0.01      0.01      0.52      0.01         0.01
  WS02006110WS02006113        0.01      0.01      0.14      0.01         0.01
  WS02006109WS02006110        0.01      0.01      0.17      0.01         0.01
  WS02004404WS02004405        0.01      0.01      0.01      4.25         0.01
  WS02003072WS02003073        0.01      0.01      0.01      0.13         0.01
  YS02001759YS02001757        5.23      5.23      5.36      0.01         0.01
  YS02001762YS02001759        5.18      5.18      5.23      0.01         0.01
  YS02001765YS02001762        5.08      5.08      5.18      0.01         0.01
  YS02001770YS02001767        4.95      4.95      4.96      0.01         0.21
  YS02001774YS02001770        4.80      4.80      5.14      0.01         0.01
  YS02001779YS02001774        4.21      4.21      5.14      0.01         0.01
  YS02001649YS02001757        5.19      5.19      5.36      0.01         0.01
  YS02001767YS02001765        4.96      4.96      5.08      0.01         0.01
  YS02001788YS02001790        0.01      0.01      3.19      0.01         0.01
  YS02001790YS02001791        3.19      3.19      3.68      0.01         0.01
  YS02001791YS02001793        3.68      3.68      4.87      0.01         0.01
  YS02001629YS02163301        4.70      4.70      4.89      0.01         0.01
  YS02001619YS02001622        3.45      3.45      3.51      0.01         0.01
  YS02001622YS02001625        3.51      3.51      4.52      0.01         0.01
  YS02001625YS02001629        3.45      3.45      4.52      0.01         0.01
  YS02163301YS02001633        4.89      4.89      5.09      0.01         0.01
  YS02163601YS02164001        5.08      5.08      5.19      0.01         0.01
  YS02164001YS02001641        5.08      5.08      5.12      0.01         0.01
  YS02001641YS02001644        5.12      5.12      5.13      0.01         0.20
  YS02001647YS02001649        4.50      4.50      5.19      0.01         0.01
  YS02001633YS02163601        5.04      5.04      5.19      0.01         0.01
  YS02001644YS02001647        4.50      4.50      5.13      0.01         0.01
  YS02001745YS02001748        0.01      0.01      2.70      0.01         0.01
  YS02001748YS02001751        2.99      2.99      3.59      0.01         0.01
  YS02001751YS02001754        3.58      3.58      4.35      0.01         0.01
  YS02001754YS02001757        4.49      4.49      5.36      0.01         0.01
  YS02001652YS02001649        4.53      4.53      5.19      0.01         0.01
  YS02001655YS02001652        3.65      3.65      4.45      0.01         0.01
  YS02001658YS02001655        2.76      2.76      3.65      0.01         0.01
  YS02001661YS02001658        0.01      0.01      2.76      0.01         0.01
  YS02001793JiankangQianchi        4.57      4.57      5.88      0.01         0.01
  YS02001757CaochengTiaoxuchi        3.21      3.21      5.36      0.01         0.01
  
  
  ***************
  Pumping Summary
  ***************
  
  ---------------------------------------------------------------------------------------------------------
                                                  Min       Avg       Max     Total     Power    % Time Off
                        Percent   Number of      Flow      Flow      Flow    Volume     Usage    Pump Curve
  Pump                 Utilized   Start-Ups       LPS       LPS       LPS  10^6 ltr     Kw-hr    Low   High
  ---------------------------------------------------------------------------------------------------------
  CC-Pump-1               28.47           6      0.00    107.51    200.00     0.856      1.26    0.0   10.4
  CC-Pump-2               29.76           6      0.00    108.44    200.00     0.900      1.63    0.0   14.3
  JK-Pump-1               27.65           6      0.00    149.24    300.00     0.727      3.90    0.0    0.0
  JK-Pump-2               31.93           6      0.00    174.49    300.00     1.083      6.99    0.0    0.0
  XR-Pump-1               42.56           7      0.00     63.86     95.00     0.741      3.30    0.0    0.0
  XR-Pump-2                0.00           0      0.00      0.00      0.00     0.000      0.00    0.0    0.0
  XR-Pump-3                4.25           1      0.00     53.59     94.98     0.057      0.25    0.0    0.0
  XR-Pump-4               44.69           6      0.00     51.54     95.00     0.684      3.05    0.0    0.0
  

  Analysis begun on:  Wed Jan  5 21:49:28 2022
  Analysis ended on:  Wed Jan  5 21:49:29 2022
  Total elapsed time: 00:00:01