
  EPA STORM WATER MANAGEMENT MODEL - VERSION 5.1 (Build 5.3.0.dev0)
  --------------------------------------------------------------

  WARNING 04: minimum elevation drop used for Conduit WS02004404WS02004405
  WARNING 03: negative offset ignored for Link YS02001904YS02001907
  
  *********************************************************
  NOTE: The summary statistics displayed in this report are
  based on results found at every computational time step,  
  not just on results from each reporting time step.
  *********************************************************
  
  ****************
  Analysis Options
  ****************
  Flow Units ............... LPS
  Process Models:
    Rainfall/Runoff ........ YES
    RDII ................... NO
    Snowmelt ............... NO
    Groundwater ............ NO
    Flow Routing ........... YES
    Ponding Allowed ........ NO
    Water Quality .......... NO
  Infiltration Method ...... HORTON
  Flow Routing Method ...... DYNWAVE
  Surcharge Method ......... EXTRAN
  Starting Date ............ 08/28/2015 08:00:00
  Ending Date .............. 08/28/2015 15:50:00
  Antecedent Dry Days ...... 8.0
  Report Time Step ......... 00:01:00
  Wet Time Step ............ 00:01:00
  Dry Time Step ............ 00:01:00
  Routing Time Step ........ 5.00 sec
  Variable Time Step ....... YES
  Maximum Trials ........... 8
  Number of Threads ........ 4
  Head Tolerance ........... 0.001500 m
  
  
  **************************        Volume         Depth
  Runoff Quantity Continuity     hectare-m            mm
  **************************     ---------       -------
  Total Precipitation ......         1.841         4.030
  Evaporation Loss .........         0.000         0.000
  Infiltration Loss ........         0.453         0.992
  Surface Runoff ...........         0.594         1.301
  Final Storage ............         0.794         1.738
  Continuity Error (%) .....        -0.017
  
  
  **************************        Volume        Volume
  Flow Routing Continuity        hectare-m      10^6 ltr
  **************************     ---------     ---------
  Dry Weather Inflow .......         0.616         6.165
  Wet Weather Inflow .......         0.594         5.937
  Groundwater Inflow .......         0.000         0.000
  RDII Inflow ..............         0.000         0.000
  External Inflow ..........         0.102         1.024
  External Outflow .........         0.631         6.313
  Flooding Loss ............         0.428         4.285
  Evaporation Loss .........         0.000         0.000
  Exfiltration Loss ........         0.000         0.000
  Initial Stored Volume ....         0.076         0.761
  Final Stored Volume ......         0.331         3.310
  Continuity Error (%) .....        -0.164
  
  
  *************************
  Highest Continuity Errors
  *************************
  Node HS02004842 (37.80%)
  Node YS02001884 (31.92%)
  Node YS02001774 (25.32%)
  Node YSB1171 (11.11%)
  Node HS02004901 (9.35%)
  
  
  ***************************
  Time-Step Critical Elements
  ***************************
  Link WS02006252WS02006251 (59.36%)
  Link 3 (19.37%)
  Link WS02006280WS02006229 (6.44%)
  Link WS02006238WS02006235 (4.73%)
  Link YS02001793JiankangQianchi (2.91%)
  
  
  ********************************
  Highest Flow Instability Indexes
  ********************************
  Link WS02006113WS02006111 (43)
  Link WS02006111WS02006112 (6)
  Link YS02001754YS02001757 (4)
  Link YS02001652YS02001649 (4)
  Link YS02001649YS02001757 (3)
  
  
  *************************
  Routing Time Step Summary
  *************************
  Minimum Time Step           :     0.50 sec
  Average Time Step           :     1.45 sec
  Maximum Time Step           :     5.00 sec
  Percent in Steady State     :    -0.00
  Average Iterations per Step :     2.04
  Percent Not Converging      :     0.35
  
  
  ***************************
  Subcatchment Runoff Summary
  ***************************
  
  ------------------------------------------------------------------------------------------------------------------------------
                            Total      Total      Total      Total     Imperv       Perv      Total       Total     Peak  Runoff
                           Precip      Runon       Evap      Infil     Runoff     Runoff     Runoff      Runoff   Runoff   Coeff
  Subcatchment                 mm         mm         mm         mm         mm         mm         mm    10^6 ltr      LPS
  ------------------------------------------------------------------------------------------------------------------------------
  sub0                       4.03       0.00       0.00       0.28       2.48       0.00       2.48        0.00     0.64   0.616
  sub1                       4.03       0.00       0.00       0.44       2.33       0.00       2.33        0.02     3.44   0.579
  sub2                       4.03       0.00       0.00       1.49       1.63       0.00       1.63        0.02     3.06   0.406
  sub3                       4.03       0.00       0.00       1.49       1.60       0.00       1.60        0.04     6.36   0.398
  sub4                       4.03       0.00       0.00       0.44       2.21       0.00       2.21        0.05     7.20   0.548
  sub5                       4.03       0.00       0.00       0.28       2.44       0.00       2.44        0.03     6.12   0.605
  sub7                       4.03       0.00       0.00       0.36       2.41       0.00       2.41        0.01     2.13   0.599
  sub8                       4.03       0.00       0.00       0.36       2.40       0.00       2.40        0.02     3.78   0.597
  sub9                       4.03       0.00       0.00       0.36       2.40       0.00       2.40        0.01     2.80   0.596
  sub10                      4.03       0.00       0.00       0.32       2.42       0.00       2.42        0.03     6.09   0.600
  sub11                      4.03       0.00       0.00       0.32       2.43       0.00       2.43        0.03     7.10   0.604
  sub12                      4.03       0.00       0.00       0.52       2.32       0.00       2.32        0.02     5.96   0.575
  sub14                      4.03       0.00       0.00       0.36       2.40       0.00       2.40        0.02     5.48   0.596
  sub15                      4.03       0.00       0.00       1.21       1.84       0.00       1.84        0.03     7.45   0.457
  sub16                      4.03       0.00       0.00       1.33       1.78       0.00       1.78        0.02     5.25   0.442
  sub17                      4.03       0.00       0.00       1.29       1.81       0.00       1.81        0.02     4.25   0.448
  sub22                      4.03       0.00       0.00       1.73       1.51       0.00       1.51        0.10    24.28   0.374
  sub23                      4.03       0.00       0.00       1.49       1.67       0.00       1.67        0.08    20.65   0.414
  sub60                      4.03       0.00       0.00       0.48       1.41       0.00       1.41        0.43    36.57   0.350
  sub61                      4.03       0.00       0.00       0.69       1.56       0.00       1.56        0.48    47.19   0.388
  sub62                      4.03       0.00       0.00       0.32       1.66       0.00       1.66        0.51    47.93   0.412
  sub63                      4.03       0.00       0.00       1.17       1.41       0.00       1.41        0.43    44.25   0.350
  sub64                      4.03       0.00       0.00       0.60       1.34       0.00       1.34        0.41    34.64   0.334
  sub65                      4.03       0.00       0.00       0.52       1.36       0.00       1.36        0.42    35.05   0.337
  sub66                      4.03       0.00       0.00       1.17       1.19       0.00       1.19        0.36    32.10   0.295
  sub67                      4.03       0.00       0.00       0.32       1.88       0.00       1.88        0.58    62.22   0.468
  sub68                      4.03       0.00       0.00       0.56       1.68       0.00       1.68        0.52    52.35   0.417
  sub69                      4.03       0.00       0.00       0.60       1.88       0.00       1.88        0.44    51.68   0.465
  sub70                      4.03       1.91       0.00       2.02       2.13       0.00       2.13        0.49    37.56   0.358
  sub71                      4.03       0.00       0.00       0.32       1.57       0.00       1.57        0.37    33.12   0.389
  sub72                      4.03       0.00       0.00       0.28       1.03       0.00       1.03        0.21    14.68   0.255
  sub73                      4.03       2.07       0.00       2.07       2.05       0.00       2.05        0.48    32.13   0.336
  sub74                      4.03       0.00       0.00       3.02       0.57       0.00       0.57        0.23    28.67   0.142
  
  
  ******************
  Node Depth Summary
  ******************
  
  ---------------------------------------------------------------------------------
                                 Average  Maximum  Maximum  Time of Max    Reported
                                   Depth    Depth      HGL   Occurrence   Max Depth
  Node                 Type       Meters   Meters   Meters  days hr:min      Meters
  ---------------------------------------------------------------------------------
  WS02001211           JUNCTION     0.45     0.60     5.44     0  04:11        0.60
  WS02001212           JUNCTION     0.21     0.33     5.40     0  04:12        0.33
  WS02001213           JUNCTION     0.42     0.56     5.32     0  04:12        0.56
  WS02003069           JUNCTION     0.26     0.38     4.97     0  04:01        0.38
  WS02003072           JUNCTION     0.33     0.46     4.83     0  04:02        0.46
  WS02003073           JUNCTION     0.19     0.27     4.33     0  04:03        0.27
  WS02003060           JUNCTION     0.24     0.34     5.28     0  04:01        0.34
  WS02003066           JUNCTION     0.17     0.26     5.82     0  03:34        0.26
  WS02003059           JUNCTION     0.49     0.62     5.31     0  04:12        0.62
  WS02003067           JUNCTION     0.45     0.64     5.96     0  03:33        0.64
  WS02004401           JUNCTION     0.51     0.74     6.74     0  03:30        0.74
  WS02004402           JUNCTION     0.55     0.77     6.73     0  03:30        0.77
  WS02004403           JUNCTION     0.57     0.79     6.72     0  03:30        0.79
  WS02004404           JUNCTION     0.65     0.87     6.72     0  03:30        0.87
  WS02004406           JUNCTION     0.66     0.87     6.70     0  03:30        0.87
  WS02004409           JUNCTION     0.32     0.56     6.33     0  03:32        0.56
  WS02004410           JUNCTION     0.35     0.58     6.30     0  03:33        0.58
  WS02004411           JUNCTION     0.37     0.59     6.27     0  03:33        0.59
  WS02004412           JUNCTION     0.40     0.61     6.25     0  03:33        0.61
  WS02004413           JUNCTION     0.56     0.77     6.24     0  03:33        0.77
  WS02004405           JUNCTION     0.65     0.87     6.72     0  03:30        0.87
  WS02006109           JUNCTION     0.58     0.84     7.46     0  03:25        0.84
  WS02006110           JUNCTION     0.59     0.83     7.41     0  03:25        0.83
  WS02006111           JUNCTION     0.15     0.25     6.96     0  03:25        0.25
  WS02006112           JUNCTION     0.66     0.92     6.80     0  03:29        0.92
  WS02006113           JUNCTION     0.23     0.40     7.29     0  03:25        0.39
  WS02006115           JUNCTION     0.40     0.63     6.77     0  03:29        0.63
  WS02006116           JUNCTION     0.48     0.72     6.76     0  03:29        0.72
  WS02006230           JUNCTION     0.49     0.85     7.60     0  03:24        0.85
  WS02006231           JUNCTION     0.31     0.58     7.70     0  03:25        0.58
  WS02006232           JUNCTION     0.43     0.72     7.76     0  03:24        0.72
  WS02006234           JUNCTION     0.33     0.66     7.82     0  03:24        0.66
  WS02006235           JUNCTION     0.36     0.70     7.86     0  03:24        0.70
  WS02006238           JUNCTION     0.38     0.73     7.87     0  03:24        0.72
  WS02006240           JUNCTION     0.28     0.64     7.93     0  03:24        0.64
  WS02006242           JUNCTION     0.34     0.70     7.97     0  03:23        0.70
  WS02006243           JUNCTION     0.23     0.58     8.00     0  03:23        0.58
  WS02006245           JUNCTION     0.23     0.56     8.04     0  03:23        0.55
  WS02006247           JUNCTION     0.25     0.58     8.08     0  03:21        0.58
  WS02006248           JUNCTION     0.21     0.52     8.11     0  03:21        0.52
  WS02006249           JUNCTION     0.25     0.56     8.16     0  03:21        0.56
  WS02006239           JUNCTION     0.33     0.70     7.90     0  03:24        0.69
  WS02006251           JUNCTION     0.23     0.58     8.25     0  03:20        0.58
  WS02006252           JUNCTION     0.22     0.59     8.83     0  03:20        0.58
  WS02006253           JUNCTION     0.26     0.61     8.26     0  03:20        0.60
  WS02006256           JUNCTION     0.75     1.12     8.06     0  03:24        1.12
  WS02004138           JUNCTION     0.07     0.14     7.39     0  02:00        0.14
  WS02004407           JUNCTION     0.15     0.25     6.57     0  03:30        0.25
  WS02006228           JUNCTION     0.56     0.85     7.50     0  03:24        0.85
  WS02006229           JUNCTION     0.52     0.83     7.53     0  03:24        0.83
  WS02006280           JUNCTION     0.05     0.10     8.37     0  02:30        0.10
  WS02006284           JUNCTION     0.34     0.42     8.82     0  02:29        0.42
  WS02006287           JUNCTION     0.07     0.15     9.10     0  02:29        0.15
  WSF200               JUNCTION     0.14     0.24     5.48     0  03:33        0.24
  HS02004901           JUNCTION     0.10     0.18    10.00     0  02:27        0.18
  HS02004881           JUNCTION     0.00     0.01     9.04     0  02:29        0.01
  HS02004876           JUNCTION     0.03     0.08     9.11     0  02:30        0.08
  HS02004870           JUNCTION     0.01     0.02     9.31     0  02:29        0.02
  HS02004862           JUNCTION     0.01     0.03     9.41     0  02:31        0.03
  HS02004856           JUNCTION     0.07     0.09     9.52     0  02:30        0.09
  HS02004852           JUNCTION     0.00     0.02     9.53     0  02:31        0.02
  HS02004848           JUNCTION     0.00     0.02     9.62     0  02:28        0.02
  HS02004842           JUNCTION     0.32     0.35     9.62     0  02:28        0.35
  HS02004837           JUNCTION     0.02     0.04     9.62     0  02:28        0.04
  HS02004830           JUNCTION     0.03     0.05     9.52     0  02:29        0.05
  HS02004824           JUNCTION     0.02     0.03     9.43     0  02:33        0.03
  HS02004817           JUNCTION     0.41     0.48     9.33     0  02:30        0.48
  HS02004807           JUNCTION     0.10     0.15     9.32     0  02:30        0.15
  HS02004802           JUNCTION     0.14     0.19     9.32     0  02:30        0.19
  HS02004799           JUNCTION     0.09     0.18     9.39     0  02:27        0.18
  HS02004792           JUNCTION     0.02     0.06     9.58     0  02:26        0.06
  HS02004788           JUNCTION     0.02     0.05     9.94     0  02:28        0.05
  HS02004785           JUNCTION     0.03     0.09     9.99     0  02:28        0.09
  HS02004777           JUNCTION     0.12     0.20    10.00     0  02:28        0.20
  HS02004770           JUNCTION     0.09     0.17    10.00     0  02:27        0.17
  HS02004480           JUNCTION     0.06     0.14     9.38     0  02:28        0.14
  HS02004479           JUNCTION     0.09     0.17     9.38     0  02:28        0.17
  HS02004478           JUNCTION     0.04     0.09     9.31     0  02:29        0.09
  YS02001745           JUNCTION     0.06     0.08     7.60     0  03:01        0.08
  YS02001748           JUNCTION     0.16     0.33     7.41     0  06:23        0.33
  YS02001751           JUNCTION     0.33     0.53     7.41     0  06:24        0.52
  YS02001754           JUNCTION     0.57     0.80     7.41     0  06:23        0.80
  YS02001762           JUNCTION     0.75     0.99     7.39     0  06:25        0.99
  YS02001765           JUNCTION     0.71     0.95     7.40     0  06:25        0.94
  YS02001767           JUNCTION     0.68     0.91     7.40     0  06:26        0.91
  YS02001770           JUNCTION     0.67     0.90     7.39     0  06:25        0.90
  YS02001774           JUNCTION     0.73     0.97     7.39     0  06:24        0.97
  YS02001779           JUNCTION     0.50     0.71     7.40     0  06:25        0.71
  YS02001882           JUNCTION     0.22     0.32     7.04     0  03:02        0.32
  YS02001884           JUNCTION     0.31     0.42     7.04     0  03:02        0.42
  YS02001759           JUNCTION     0.79     1.03     7.39     0  06:24        1.03
  YS02001887           JUNCTION     0.38     0.50     7.04     0  03:02        0.50
  YS02001890           JUNCTION     0.41     0.53     7.03     0  03:02        0.53
  YS02001898           JUNCTION     0.19     0.28     7.02     0  03:02        0.28
  YS02001901           JUNCTION     0.30     0.41     7.02     0  03:03        0.41
  YS02001904           JUNCTION     0.28     0.39     7.02     0  03:03        0.39
  YS02001907           JUNCTION     0.60     0.73     7.02     0  03:02        0.73
  YS02001910           JUNCTION     0.40     0.51     7.02     0  03:03        0.51
  YS02001915           JUNCTION     0.21     0.30     7.02     0  03:03        0.30
  YS02001918           JUNCTION     0.06     0.07     7.14     0  03:05        0.07
  YS02001619           JUNCTION     0.29     0.47     7.40     0  06:25        0.47
  YS02001629           JUNCTION     0.62     0.85     7.40     0  06:23        0.85
  YS02001641           JUNCTION     0.72     0.96     7.40     0  06:25        0.96
  YS02001644           JUNCTION     0.73     0.97     7.40     0  06:26        0.96
  YS02001652           JUNCTION     0.58     0.81     7.40     0  06:25        0.81
  YS02001655           JUNCTION     0.36     0.56     7.41     0  06:26        0.55
  YS02001920           JUNCTION     0.14     0.16     7.17     0  03:04        0.16
  YS02001923           JUNCTION     0.04     0.06     7.32     0  03:03        0.06
  YS02001926           JUNCTION     0.11     0.13     7.58     0  03:03        0.13
  YS02001929           JUNCTION     0.05     0.06     7.75     0  03:01        0.06
  YS02001658           JUNCTION     0.13     0.26     7.40     0  06:28        0.26
  YS02001661           JUNCTION     0.12     0.16     7.57     0  03:01        0.16
  YS02001664           JUNCTION     0.05     0.08     8.01     0  03:01        0.08
  YS02001622           JUNCTION     0.31     0.49     7.39     0  06:26        0.49
  YS02001633           JUNCTION     0.71     0.94     7.40     0  06:26        0.94
  YS02001649           JUNCTION     0.76     1.00     7.39     0  06:25        1.00
  YS02001757           JUNCTION     0.88     1.13     7.40     0  06:27        1.13
  YS02001895           JUNCTION     0.18     0.28     7.03     0  03:03        0.28
  YS02001625           JUNCTION     0.58     0.80     7.40     0  06:25        0.79
  YS02163301           JUNCTION     0.65     0.88     7.40     0  06:26        0.88
  YS02163601           JUNCTION     0.76     1.00     7.39     0  06:24        0.99
  YS02164001           JUNCTION     0.70     0.94     7.40     0  06:24        0.94
  YS02001647           JUNCTION     0.56     0.78     7.39     0  06:27        0.78
  YSB1154              JUNCTION     0.22     0.32     9.38     0  02:28        0.32
  YSB6556              JUNCTION     0.12     0.21     9.38     0  02:27        0.21
  YSB1174              JUNCTION     0.18     0.27     9.38     0  02:28        0.27
  YSB1171              JUNCTION     0.37     0.47     9.38     0  02:28        0.47
  YS02006553           JUNCTION     0.61     0.73     7.02     0  03:03        0.73
  YS02006561           JUNCTION     0.10     0.16     6.82     0  03:03        0.16
  YS02006556           JUNCTION     0.58     0.71     7.02     0  03:03        0.71
  YS02006558           JUNCTION     0.63     0.75     7.02     0  03:03        0.75
  YS02001783           JUNCTION     0.17     0.33     6.47     0  03:14        0.33
  YS02001784           JUNCTION     0.21     0.40     6.46     0  03:15        0.40
  YS02001786           JUNCTION     0.18     0.42     6.45     0  03:15        0.41
  YS02001788           JUNCTION     0.13     0.46     6.44     0  03:15        0.46
  YS02001790           JUNCTION     0.18     1.11     6.75     0  03:13        0.79
  YS02001791           JUNCTION     0.15     1.14     6.61     0  03:13        0.95
  YS02001793           JUNCTION     0.19     1.67     6.50     0  03:13        1.58
  WS02004139           JUNCTION     0.39     0.54     5.45     0  04:11        0.54
  WSC                  OUTFALL      0.19     0.27     0.94     0  04:03        0.27
  3                    OUTFALL      0.03     0.12     6.12     0  03:24        0.12
  4                    OUTFALL      0.00     0.06     7.06     0  03:21        0.06
  5                    OUTFALL      0.00     0.00     5.00     0  00:00        0.00
  JK-storage           STORAGE      1.59     5.62     6.42     0  03:14        5.62
  CC-storage           STORAGE      0.19     0.39     7.39     0  06:24        0.39
  XR-storage           STORAGE      7.67     7.72     5.72     0  00:32        7.72
  
  
  *******************
  Node Inflow Summary
  *******************
  
  -------------------------------------------------------------------------------------------------
                                  Maximum  Maximum                  Lateral       Total        Flow
                                  Lateral    Total  Time of Max      Inflow      Inflow     Balance
                                   Inflow   Inflow   Occurrence      Volume      Volume       Error
  Node                 Type           LPS      LPS  days hr:min    10^6 ltr    10^6 ltr     Percent
  -------------------------------------------------------------------------------------------------
  WS02001211           JUNCTION      7.35   190.29     0  04:10       0.207        1.93       1.352
  WS02001212           JUNCTION      0.00   185.54     0  04:11           0        1.91       0.534
  WS02001213           JUNCTION      0.00   185.28     0  04:12           0         1.9       0.815
  WS02003069           JUNCTION      0.32   453.08     0  04:01     0.00902        5.66       0.252
  WS02003072           JUNCTION      0.00   453.01     0  04:02           0        5.64       0.345
  WS02003073           JUNCTION      1.82   454.75     0  04:02      0.0514        5.67       0.339
  WS02003060           JUNCTION     16.53   452.77     0  04:00       0.466        5.67       0.251
  WS02003066           JUNCTION      0.00   388.73     0  03:33           0        3.35       0.081
  WS02003059           JUNCTION      0.00   186.24     0  04:12           0        1.89       1.460
  WS02003067           JUNCTION      0.00   388.68     0  03:33           0        3.35       0.191
  WS02004401           JUNCTION      0.00   403.56     0  03:28           0        3.51       0.424
  WS02004402           JUNCTION      0.00   401.12     0  03:29           0         3.5       0.417
  WS02004403           JUNCTION      0.00   399.89     0  03:29           0        3.48       0.394
  WS02004404           JUNCTION      0.16   399.32     0  03:29     0.00457        3.47       0.312
  WS02004406           JUNCTION      0.00   398.76     0  03:30           0        3.45       0.774
  WS02004409           JUNCTION      0.00   398.52     0  03:30           0        3.42       0.248
  WS02004410           JUNCTION      0.00   395.19     0  03:31           0        3.41       0.306
  WS02004411           JUNCTION      0.00   392.36     0  03:32           0         3.4       0.335
  WS02004412           JUNCTION      0.00   390.32     0  03:32           0        3.39       0.390
  WS02004413           JUNCTION      0.00   389.09     0  03:33           0        3.37       0.625
  WS02004405           JUNCTION      0.04   399.00     0  03:29     0.00107        3.46       0.470
  WS02006109           JUNCTION      1.23   420.28     0  03:24      0.0347        3.57       0.298
  WS02006110           JUNCTION      0.00   420.57     0  03:25           0        3.56       0.369
  WS02006111           JUNCTION      0.00   429.79     0  03:25           0        3.54       0.055
  WS02006112           JUNCTION      4.25   421.83     0  03:25      0.0155        3.56       0.621
  WS02006113           JUNCTION      0.00   419.87     0  03:25           0        3.55       0.118
  WS02006115           JUNCTION      0.00   415.03     0  03:26           0        3.53       0.350
  WS02006116           JUNCTION      0.00   407.24     0  03:26           0        3.52       0.305
  WS02006230           JUNCTION     10.28   379.53     0  03:23        0.29        2.94       0.190
  WS02006231           JUNCTION      0.00   374.98     0  03:23           0        2.66       0.155
  WS02006232           JUNCTION      0.00   376.16     0  03:22           0        2.67       0.293
  WS02006234           JUNCTION      0.00   381.25     0  03:22           0        2.66      -0.070
  WS02006235           JUNCTION      0.00   383.77     0  03:22           0        2.74       0.260
  WS02006238           JUNCTION      0.00   294.41     0  03:22           0        1.63      -0.009
  WS02006240           JUNCTION      0.00   312.23     0  03:21           0        1.57       0.114
  WS02006242           JUNCTION      0.00   324.05     0  03:21           0        1.55       0.210
  WS02006243           JUNCTION      0.00   333.59     0  03:21           0        1.52      -0.333
  WS02006245           JUNCTION      0.00   341.68     0  03:20           0        1.53       0.546
  WS02006247           JUNCTION      0.00   348.32     0  03:20           0        1.53       0.142
  WS02006248           JUNCTION      0.00   353.66     0  03:20           0        1.53      -0.258
  WS02006249           JUNCTION      0.00   388.32     0  03:20           0        1.54       0.469
  WS02006239           JUNCTION      0.00   300.93     0  03:21           0         1.6      -0.282
  WS02006251           JUNCTION      0.08   400.04     0  03:20     0.00217        1.56      -0.061
  WS02006252           JUNCTION      0.00   399.91     0  03:20           0        1.45       0.015
  WS02006253           JUNCTION      0.64    20.31     0  03:15     0.00201       0.106       0.170
  WS02006256           JUNCTION      0.00   300.00     0  03:20           0        1.81       0.105
  WS02004138           JUNCTION      0.00   189.94     0  04:40           0        1.74       0.029
  WS02004407           JUNCTION      0.00   398.61     0  03:30           0        3.42       0.117
  WS02006228           JUNCTION      0.00   419.42     0  03:24           0        3.54       0.227
  WS02006229           JUNCTION      0.00   419.76     0  03:24           0        3.55       0.253
  WS02006280           JUNCTION      0.00   103.07     0  02:30           0       0.614       0.012
  WS02006284           JUNCTION      0.10   103.07     0  02:29      0.0027       0.615       0.189
  WS02006287           JUNCTION      0.00   102.98     0  02:29           0       0.613       0.113
  WSF200               JUNCTION      0.00   388.71     0  03:34           0        3.34       0.061
  HS02004901           JUNCTION      5.25     5.25     0  02:18      0.0186      0.0188      10.317
  HS02004881           JUNCTION      2.13    17.99     0  02:29     0.00813      0.0838       0.157
  HS02004876           JUNCTION      3.44    16.09     0  02:28      0.0155      0.0762       0.686
  HS02004870           JUNCTION      3.78    12.71     0  02:28      0.0154      0.0608       0.175
  HS02004862           JUNCTION      3.26     9.15     0  02:29      0.0209      0.0456       0.362
  HS02004856           JUNCTION      2.80     5.91     0  02:28      0.0115      0.0262       5.793
  HS02004852           JUNCTION      0.00     3.26     0  02:29           0      0.0147       0.326
  HS02004848           JUNCTION      6.36     6.36     0  02:33      0.0361      0.0361       0.119
  HS02004842           JUNCTION      0.00     4.49     0  00:03           0      0.0344      60.771
  HS02004837           JUNCTION     12.44    15.39     0  02:27       0.206       0.227       0.348
  HS02004830           JUNCTION      0.15    15.54     0  02:28     0.00423       0.217       0.569
  HS02004824           JUNCTION      7.25    22.69     0  02:33      0.0474       0.264       0.205
  HS02004817           JUNCTION      0.60    23.29     0  02:33      0.0169        0.28       6.323
  HS02004807           JUNCTION      7.10    29.82     0  02:31      0.0283       0.292       1.470
  HS02004802           JUNCTION      0.00    29.90     0  02:32           0       0.287       1.434
  HS02004799           JUNCTION      5.48    62.31     0  02:26      0.0228       0.297       0.761
  HS02004792           JUNCTION     24.56    56.94     0  02:26       0.103       0.274       0.152
  HS02004788           JUNCTION      9.12    33.38     0  02:27      0.0788       0.172       0.224
  HS02004785           JUNCTION      0.15    24.50     0  02:26     0.00423      0.0957       0.502
  HS02004777           JUNCTION      0.03    24.64     0  02:24    0.000846      0.0959       5.701
  HS02004770           JUNCTION     20.65    25.26     0  02:21      0.0796      0.0966       3.317
  HS02004480           JUNCTION      0.00    73.39     0  02:28           0       0.342       0.197
  HS02004479           JUNCTION      0.00    11.25     0  02:29           0      0.0575       1.282
  HS02004478           JUNCTION      0.00   102.98     0  02:29           0       0.614       0.109
  YS02001745           JUNCTION     36.57    36.57     0  03:01       0.427       0.427       0.108
  YS02001748           JUNCTION      0.04    43.07     0  06:52     0.00127       0.475       0.872
  YS02001751           JUNCTION      0.01    96.33     0  04:34     0.00031       0.518       2.199
  YS02001754           JUNCTION      0.26   210.44     0  04:34     0.00733       0.606       3.322
  YS02001762           JUNCTION      0.00    51.95     0  03:05           0       0.466       4.589
  YS02001765           JUNCTION      0.00    76.48     0  04:31           0       0.464       5.206
  YS02001767           JUNCTION      0.54    64.43     0  04:31      0.0151       0.482       7.283
  YS02001770           JUNCTION     48.09    52.92     0  02:55       0.514       0.543       5.462
  YS02001774           JUNCTION      0.00    24.05     0  02:36           0      0.0939      33.897
  YS02001779           JUNCTION      0.01    11.81     0  04:25    0.000141      0.0417      37.932
  YS02001882           JUNCTION      0.00     1.94     0  02:22           0      0.0033      75.059
  YS02001884           JUNCTION      0.00     5.63     0  02:11           0      0.0135      46.886
  YS02001759           JUNCTION     47.23   101.60     0  03:05       0.483       0.914       2.538
  YS02001887           JUNCTION     62.67    62.67     0  03:01       0.594         0.6       1.104
  YS02001890           JUNCTION      0.00    62.19     0  03:00           0       0.582       1.255
  YS02001898           JUNCTION      0.00    61.82     0  03:01           0       0.571       0.318
  YS02001901           JUNCTION      0.00    61.93     0  03:03           0       0.571       0.867
  YS02001904           JUNCTION      0.00    61.68     0  03:03           0       0.571       0.811
  YS02001907           JUNCTION      0.00   111.82     0  03:03           0        1.21       1.767
  YS02001910           JUNCTION      0.00    50.42     0  03:02           0       0.654       1.458
  YS02001915           JUNCTION     33.14    50.37     0  03:01        0.37       0.658       0.588
  YS02001918           JUNCTION      0.00    17.54     0  03:04           0       0.289       0.279
  YS02001619           JUNCTION     32.10    32.10     0  03:01       0.364       0.364       1.410
  YS02001629           JUNCTION      0.00    33.61     0  03:10           0       0.316       5.494
  YS02001641           JUNCTION      0.00    67.18     0  03:11           0       0.654       3.149
  YS02001644           JUNCTION     34.68    99.98     0  03:01        0.41        1.04       2.438
  YS02001652           JUNCTION      0.00    73.91     0  04:31           0       0.459       4.187
  YS02001655           JUNCTION      0.15    44.36     0  03:01     0.00434       0.463       2.810
  YS02001920           JUNCTION      2.87    17.56     0  03:03      0.0809        0.29       0.577
  YS02001923           JUNCTION      0.04    14.69     0  03:03     0.00106        0.21       0.103
  YS02001926           JUNCTION      0.05    14.72     0  03:01     0.00147        0.21       0.747
  YS02001929           JUNCTION     14.68    14.68     0  03:01       0.209       0.209       0.097
  YS02001658           JUNCTION      0.00    44.22     0  03:01           0       0.461       0.870
  YS02001661           JUNCTION      0.00    44.24     0  03:01           0       0.427       0.160
  YS02001664           JUNCTION     44.25    44.25     0  03:01       0.427       0.427       0.034
  YS02001622           JUNCTION      0.00    32.88     0  02:53           0       0.359       4.334
  YS02001633           JUNCTION     35.25    69.03     0  03:02       0.423       0.706       4.401
  YS02001649           JUNCTION      0.00   148.72     0  03:27           0        1.41       2.585
  YS02001757           JUNCTION      0.00   348.25     0  04:31           0        2.72       3.446
  YS02001895           JUNCTION      0.00    61.93     0  03:01           0       0.575       0.533
  YS02001625           JUNCTION      0.00    34.83     0  02:53           0       0.344       9.393
  YS02163301           JUNCTION      0.00    34.06     0  02:44           0       0.306       7.478
  YS02163601           JUNCTION      0.11    68.13     0  03:01      0.0031       0.675       4.512
  YS02164001           JUNCTION      0.00    67.61     0  03:11           0       0.655       2.928
  YS02001647           JUNCTION      0.00   100.31     0  03:02           0           1       2.368
  YSB1154              JUNCTION      6.12     6.12     0  02:25      0.0276       0.029       5.238
  YSB6556              JUNCTION      0.00     6.09     0  02:27           0      0.0301       4.315
  YSB1174              JUNCTION      5.96     5.96     0  02:17      0.0202      0.0212       6.437
  YSB1171              JUNCTION      0.00    11.27     0  02:27           0      0.0569      12.495
  YS02006553           JUNCTION      0.00   111.95     0  03:05           0         1.2       1.153
  YS02006561           JUNCTION      0.00   163.77     0  03:03           0         1.7       0.030
  YS02006556           JUNCTION      0.00   112.10     0  03:05           0         1.2       0.825
  YS02006558           JUNCTION     53.23   163.80     0  03:03       0.541        1.72       0.249
  YS02001783           JUNCTION      0.00   163.77     0  03:03           0         1.7       0.070
  YS02001784           JUNCTION      1.06   164.82     0  03:03      0.0299        1.73       0.118
  YS02001786           JUNCTION      0.06   167.67     0  03:17     0.00159        1.72       0.115
  YS02001788           JUNCTION      0.07   203.35     0  03:20       0.002        1.72       0.064
  YS02001790           JUNCTION      0.15   301.60     0  03:20     0.00437        1.73       0.085
  YS02001791           JUNCTION      0.00   276.89     0  03:20           0        1.73       0.029
  YS02001793           JUNCTION      0.00   304.55     0  03:20           0        1.73       0.003
  WS02004139           JUNCTION      0.32   189.61     0  02:00     0.00905        1.75       1.212
  WSC                  OUTFALL       0.00   454.60     0  04:03           0        5.65       0.000
  3                    OUTFALL       0.00   212.86     0  03:24           0       0.653       0.000
  4                    OUTFALL       0.00    34.30     0  03:21           0      0.0057       0.000
  5                    OUTFALL       0.00     0.00     0  00:00           0           0       0.000 ltr
  JK-storage           STORAGE       0.00   333.66     0  03:32           0        1.88      -0.614
  CC-storage           STORAGE       0.00   259.52     0  03:05           0        2.49       0.870
  XR-storage           STORAGE     260.45   260.45     0  03:01        6.35        6.95      -0.001
  
  
  **********************
  Node Surcharge Summary
  **********************
  
  Surcharging occurs when water rises above the top of the highest conduit.
  ---------------------------------------------------------------------
                                               Max. Height   Min. Depth
                                   Hours       Above Crown    Below Rim
  Node                 Type      Surcharged         Meters       Meters
  ---------------------------------------------------------------------
  WS02006109           JUNCTION        0.10          0.023        1.797
  WS02006232           JUNCTION        0.09          0.025        1.455
  WS02006238           JUNCTION        0.04          0.006        1.424
  WS02006252           JUNCTION        0.13          0.189        0.911
  WS02006228           JUNCTION        0.09          0.023        2.177
  YS02001759           JUNCTION        0.89          0.029        1.181
  YS02001649           JUNCTION        0.08          0.004        1.046
  YS02001757           JUNCTION        2.92          0.135        1.075
  YS02001790           JUNCTION        0.01          0.307        0.850
  YS02001791           JUNCTION        0.16          0.342        1.578
  YS02001793           JUNCTION        0.33          0.672        1.928
  
  
  *********************
  Node Flooding Summary
  *********************
  
  Flooding refers to all water that overflows a node, whether it ponds or not.
  --------------------------------------------------------------------------
                                                             Total   Maximum
                                 Maximum   Time of Max       Flood    Ponded
                        Hours       Rate    Occurrence      Volume     Depth
  Node                 Flooded       LPS   days hr:min    10^6 ltr    Meters
  --------------------------------------------------------------------------
  XR-storage              7.30    257.84      0  02:50       4.285     0.000
  
  
  **********************
  Storage Volume Summary
  **********************
  
  --------------------------------------------------------------------------------------------------
                         Average     Avg  Evap Exfil       Maximum     Max    Time of Max    Maximum
                          Volume    Pcnt  Pcnt  Pcnt        Volume    Pcnt     Occurrence    Outflow
  Storage Unit           1000 m3    Full  Loss  Loss       1000 m3    Full    days hr:min        LPS
  --------------------------------------------------------------------------------------------------
  JK-storage               0.080      27     0     0         0.282      97       0  03:14     300.00
  CC-storage               0.521       3     0     0         1.076       7       0  06:24     399.91
  XR-storage               0.920      99     0     0         0.926     100       0  00:32     189.94
  
  
  ***********************
  Outfall Loading Summary
  ***********************
  
  -----------------------------------------------------------
                         Flow       Avg       Max       Total
                         Freq      Flow      Flow      Volume
  Outfall Node           Pcnt       LPS       LPS    10^6 ltr
  -----------------------------------------------------------
  WSC                   99.99    234.94    454.60       5.654
  3                     36.20    132.54    212.86       0.653
  4                      3.18     15.71     34.30       0.006
  5                      0.00      0.00      0.00       0.000
  -----------------------------------------------------------
  System                34.84    383.19    615.93       6.313
  
  
  ********************
  Link Flow Summary
  ********************
  
  -----------------------------------------------------------------------------
                                 Maximum  Time of Max   Maximum    Max/    Max/
                                  |Flow|   Occurrence   |Veloc|    Full    Full
  Link                 Type          LPS  days hr:min     m/sec    Flow   Depth
  -----------------------------------------------------------------------------
  WS02003066WSF200     CONDUIT    388.71     0  03:34      2.63    0.07    0.19
  WS02006287WS02006284 CONDUIT    102.97     0  02:29      1.27    0.05    0.16
  WS02006284WS02006280 CONDUIT    103.07     0  02:30      1.52    0.04    0.14
  WS02006280WS02006229 CONDUIT    103.07     0  02:30      2.44    0.02    0.10
  WS02006229WS02006228 CONDUIT    419.42     0  03:24      0.83    1.39    1.00
  WS02006256WS02006235 CONDUIT    150.00     0  00:15      2.14    1.59    1.00
  WS02006253WS02006251 CONDUIT     23.68     0  03:28      0.37    0.07    0.84
  WS02006252WS02006251 CONDUIT    399.97     0  03:20      3.18    1.47    1.00
  WS02006251WS02006249 CONDUIT    388.32     0  03:20      1.16    1.12    0.81
  WS02006249WS02006248 CONDUIT    353.66     0  03:20      1.16    1.94    0.75
  WS02006248WS02006247 CONDUIT    348.32     0  03:20      1.13    0.76    0.78
  WS02006247WS02006245 CONDUIT    341.68     0  03:20      1.09    2.71    0.80
  WS02006245WS02006243 CONDUIT    333.59     0  03:21      1.10    0.99    0.81
  WS02006243WS02006242 CONDUIT    324.05     0  03:21      0.95    0.69    0.90
  WS02006242WS02006240 CONDUIT    312.23     0  03:21      0.86    1.24    0.95
  WS02006240WS02006239 CONDUIT    300.93     0  03:21      0.94    0.95    0.93
  WS02006239WS02006238 CONDUIT    294.41     0  03:22      0.80    0.94    1.00
  WS02006238WS02006235 CONDUIT    292.44     0  03:22      0.76    0.65    1.00
  WS02006235WS02006234 CONDUIT    381.25     0  03:22      1.04    4.02    0.95
  WS02006234WS02006232 CONDUIT    376.16     0  03:22      0.99    0.76    0.97
  WS02006232WS02006231 CONDUIT    374.98     0  03:23      1.04    0.79    0.91
  WS02006231WS02006230 CONDUIT    369.25     0  03:23      1.30    5.60    0.75
  WS02006230WS02006229 CONDUIT    378.95     0  03:24      0.98    8.43    1.00
  WS02006228WS02006109 CONDUIT    419.05     0  03:24      0.83    1.83    1.00
  WS02006116WS02004401 CONDUIT    403.56     0  03:28      0.79    0.56    0.73
  WS02006115WS02006116 CONDUIT    407.24     0  03:26      0.94    0.52    0.64
  WS02006113WS02006111 CONDUIT    429.79     0  03:25      2.25    0.52    0.40
  WS02006112WS02006115 CONDUIT    415.03     0  03:26      0.67    0.24    0.77
  WS02006111WS02006112 CONDUIT    421.22     0  03:25      1.27    0.20    0.65
  WS02006110WS02006113 CONDUIT    419.87     0  03:25      1.04    0.38    0.75
  WS02006109WS02006110 CONDUIT    420.57     0  03:25      0.85    0.81    0.95
  WS02004411WS02004412 CONDUIT    390.32     0  03:32      0.80    0.55    0.60
  WS02004401WS02004402 CONDUIT    401.12     0  03:29      0.83    0.48    0.76
  WS02004413WS02003067 CONDUIT    388.68     0  03:33      0.93    0.17    0.52
  WS02004412WS02004413 CONDUIT    389.09     0  03:33      0.68    0.26    0.69
  WS02004410WS02004411 CONDUIT    392.36     0  03:32      0.83    0.54    0.58
  WS02004409WS02004410 CONDUIT    395.19     0  03:31      0.88    0.51    0.57
  WS02004407WS02004409 CONDUIT    398.52     0  03:30      1.37    0.14    0.40
  WS02004406WS02004407 CONDUIT    398.61     0  03:30      0.87    0.18    0.56
  WS02004405WS02004406 CONDUIT    398.76     0  03:30      0.77    0.79    0.87
  WS02004404WS02004405 CONDUIT    398.96     0  03:29      0.96    3.91    0.87
  WS02004403WS02004404 CONDUIT    399.15     0  03:29      0.85    0.29    0.83
  WS02004402WS02004403 CONDUIT    399.89     0  03:29      0.87    0.57    0.78
  WS02004139WS02001211 CONDUIT    182.95     0  04:10      0.40    0.23    0.43
  WS02004138WS02004139 CONDUIT    189.29     0  02:00      1.02    0.04    0.31
  WS02003067WS02003066 CONDUIT    388.73     0  03:33      1.01    0.12    0.37
  WS02001213WS02003059 CONDUIT    186.24     0  04:12      0.45    0.31    0.58
  WS02001212WS02001213 CONDUIT    185.28     0  04:12      1.00    0.29    0.29
  WS02001211WS02001212 CONDUIT    185.54     0  04:11      0.52    0.14    0.47
  WS02003072WS02003073 CONDUIT    452.93     0  04:02      1.34    0.98    0.34
  WS02003069WS02003072 CONDUIT    453.01     0  04:02      1.29    0.22    0.35
  WS02003060WS02003069 CONDUIT    452.76     0  04:01      1.56    0.18    0.30
  WS02003059WS02003060 CONDUIT    188.53     0  04:13      0.62    0.12    0.48
  HS02004901HS02004770 CONDUIT      4.80     0  02:25      0.03    0.02    0.25
  HS02004876HS02004881 CONDUIT     16.05     0  02:30      0.34    0.17    0.07
  HS02004870HS02004876 CONDUIT     12.70     0  02:29      0.24    0.01    0.08
  HS02004842HS02004848 CONDUIT      3.25     0  02:42      0.02    0.00    0.26
  HS02004837HS02004842 CONDUIT      4.49     0  00:03      0.42    0.00    0.27
  HS02004830HS02004837 CONDUIT     15.39     0  02:28      0.37    0.02    0.06
  HS02004824HS02004830 CONDUIT     15.54     0  02:29      0.41    0.02    0.05
  HS02004817HS02004824 CONDUIT     22.69     0  02:33      0.17    0.01    0.36
  HS02004770HS02004777 CONDUIT     24.61     0  02:24      0.14    0.04    0.26
  HS02004799HS02004480 CONDUIT     62.22     0  02:27      0.40    0.08    0.22
  HS02004792HS02004799 CONDUIT     56.92     0  02:26      0.47    0.03    0.17
  HS02004788HS02004792 CONDUIT     33.36     0  02:28      0.64    0.02    0.07
  HS02004785HS02004788 CONDUIT     24.42     0  02:28      0.36    0.18    0.10
  HS02004777HS02004785 CONDUIT     24.35     0  02:26      0.17    0.03    0.21
  HS02004480HS02004478 CONDUIT     73.37     0  02:28      0.71    0.31    0.15
  HS02004479HS02004480 CONDUIT     11.32     0  02:30      0.15    0.01    0.22
  HS02004862HS02004870 CONDUIT      9.13     0  02:30      0.34    0.01    0.04
  HS02004848HS02004852 CONDUIT      3.26     0  02:29      0.22    0.00    0.02
  HS02004856HS02004862 CONDUIT      5.89     0  02:30      0.24    0.01    0.03
  HS02004852HS02004856 CONDUIT      3.24     0  02:31      0.06    0.00    0.08
  HS02004802HS02004478 CONDUIT     30.01     0  02:34      0.22    0.03    0.20
  HS02004478WS02006287 CONDUIT    102.98     0  02:29      0.96    0.03    0.12
  HS02004817HS02004807 CONDUIT     23.48     0  02:35      0.07    0.01    0.45
  HS02004807HS02004802 CONDUIT     29.90     0  02:32      0.19    0.06    0.24
  YS02001759YS02001757 CONDUIT     99.10     0  03:05      0.14    0.07    1.00
  YS02001762YS02001759 CONDUIT     75.56     0  04:31      0.17    0.09    1.00
  YS02001765YS02001762 CONDUIT     51.95     0  03:05      0.22    0.05    0.97
  YS02001770YS02001767 CONDUIT     52.14     0  02:55      0.28    0.21    0.90
  YS02001774YS02001770 CONDUIT     24.05     0  02:36      0.12    0.02    0.92
  YS02001779YS02001774 CONDUIT     11.90     0  04:31      0.06    0.01    0.84
  YS02001649YS02001757 CONDUIT    146.92     0  03:24      0.21    0.09    1.00
  YS02001767YS02001765 CONDUIT     76.48     0  04:31      0.25    0.10    0.93
  YS02006561YS02001783 CONDUIT    163.77     0  03:03      1.50    0.08    0.30
  YS02001783YS02001784 CONDUIT    163.76     0  03:03      1.00    0.23    0.45
  YS02001784YS02001785 CONDUIT    167.61     0  03:17      1.04    0.39    0.51
  YS02001788YS02001790 CONDUIT    301.45     0  03:20      1.58    0.22    0.78
  YS02001790YS02001791 CONDUIT    276.89     0  03:20      1.85    0.30    1.00
  YS02001791YS02001793 CONDUIT    304.55     0  03:20      3.57    0.13    1.00
  YS02001910YS02001907 CONDUIT     50.42     0  03:05      0.49    0.03    0.62
  YS02001786YS02001788 CONDUIT    203.28     0  03:20      1.52    0.39    0.55
  YS02001915YS02001910 CONDUIT     50.42     0  03:02      0.44    0.03    0.41
  YS02001918YS02001915 CONDUIT     17.53     0  03:05      0.44    0.01    0.18
  YS02001923YS02001920 CONDUIT     14.69     0  03:03      0.31    0.01    0.11
  YS02001926YS02001923 CONDUIT     14.65     0  03:03      0.37    0.02    0.10
  YS02001929YS02001926 CONDUIT     14.67     0  03:01      0.38    0.01    0.10
  YS02001920YS02001918 CONDUIT     17.54     0  03:04      0.35    0.02    0.12
  YS02001629YS02163301 CONDUIT     34.06     0  02:44      0.08    0.04    0.86
  YS02001619YS02001622 CONDUIT     32.88     0  02:53      0.52    0.05    0.48
  YS02001622YS02001625 CONDUIT     34.83     0  02:53      0.17    0.02    0.64
  YS02001625YS02001629 CONDUIT     33.61     0  03:10      0.17    0.02    0.63
  YS02163301YS02001633 CONDUIT     36.51     0  02:44      0.07    0.03    0.91
  YS02163601YS02164001 CONDUIT     67.61     0  03:11      0.11    0.06    0.97
  YS02164001YS02001641 CONDUIT     67.18     0  03:11      0.11    0.09    0.95
  YS02001641YS02001644 CONDUIT     66.31     0  03:27      0.12    0.21    0.96
  YS02001647YS02001649 CONDUIT    101.38     0  03:27      0.18    0.05    0.89
  YS02006553YS02006556 CONDUIT    112.10     0  03:05      0.19    0.10    0.70
  YS02006556YS02006558 CONDUIT    112.18     0  03:05      0.18    0.09    0.73
  YSB6556YSB1171       CONDUIT      6.16     0  02:31      0.03    0.01    0.49
  YS02001907YS02006553 CONDUIT    111.95     0  03:05      0.16    0.13    0.80
  YS02006558YS02006561 CONDUIT    163.77     0  03:03      1.94    0.36    0.34
  YS02001633YS02163601 CONDUIT     68.02     0  03:01      0.12    0.07    0.96
  YS02001644YS02001647 CONDUIT    100.31     0  03:02      0.18    0.06    0.87
  YS02001745YS02001748 CONDUIT     36.55     0  03:01      1.18    0.01    0.15
  YS02001748YS02001751 CONDUIT     54.84     0  06:55      0.91    0.03    0.41
  YS02001751YS02001754 CONDUIT    104.49     0  04:34      0.82    0.05    0.64
  YS02001754YS02001757 CONDUIT    152.09     0  04:34      0.33    0.06    0.90
  YS02001882YS02001884 CONDUIT      1.94     0  02:22      0.06    0.00    0.34
  YS02001884YS02001887 CONDUIT      5.63     0  02:11      0.04    0.01    0.43
  YS02001890YS02001895 CONDUIT     61.93     0  03:01      0.21    0.03    0.41
  YS02001895YS02001898 CONDUIT     61.82     0  03:01      0.40    0.11    0.27
  YS02001898YS02001901 CONDUIT     61.93     0  03:03      0.26    0.04    0.35
  YS02001901YS02001904 CONDUIT     61.68     0  03:03      0.21    0.10    0.40
  YS02001904YS02001907 CONDUIT     61.93     0  03:03      0.14    0.02    0.56
  YS02001887YS02001890 CONDUIT     62.19     0  03:00      0.16    0.11    0.49
  YS02001652YS02001649 CONDUIT     64.83     0  04:31      0.24    0.03    0.90
  YS02001655YS02001652 CONDUIT     52.04     0  04:31      0.88    0.03    0.67
  YS02001658YS02001655 CONDUIT     44.21     0  03:01      1.04    0.02    0.40
  YS02001661YS02001658 CONDUIT     44.22     0  03:01      1.20    0.02    0.15
  YS02001664YS02001661 CONDUIT     44.24     0  03:01      0.81    0.01    0.12
  YSB1154YSB6556       CONDUIT      6.09     0  02:27      0.19    0.01    0.38
  YSB1174YSB1171       CONDUIT      5.55     0  02:20      0.03    0.01    0.49
  YSB1171HS02004479    CONDUIT     11.25     0  02:29      0.54    0.01    0.37
  HS02004881HS02006253 CONDUIT     17.99     0  02:30      1.23    0.00    0.20
  YS02001793JiankangQianchi CONDUIT    333.66     0  03:32      9.87    0.03    1.00
  YS02001757CaochengTiaoxuchi CONDUIT    259.52     0  03:05      0.70    0.11    0.69
  WSF200WS02003060     CONDUIT    388.89     0  03:34      1.89    0.09    0.24
  1                    CONDUIT    454.60     0  04:03      2.67    0.16    0.27
  2                    CONDUIT     34.30     0  03:21      3.56    0.08    0.19
  3                    CONDUIT    212.86     0  03:24      7.97    0.34    0.40
  4                    CONDUIT      0.00     0  00:00      0.00    0.00    0.00
  CC-Pump-1            PUMP       200.00     0  03:40              1.00
  CC-Pump-2            PUMP       200.00     0  06:30              1.00
  JK-Pump-1            PUMP       299.99     0  07:00              1.00
  JK-Pump-2            PUMP       300.00     0  03:20              1.00
  XR-Pump-1            PUMP        95.00     0  01:30              1.00
  XR-Pump-2            PUMP        95.00     0  04:00              1.00
  XR-Pump-3            PUMP        94.97     0  05:50              1.00
  XR-Pump-4            PUMP        95.00     0  04:30              1.00
  
  
  ***************************
  Flow Classification Summary
  ***************************
  
  -------------------------------------------------------------------------------------
                      Adjusted    ---------- Fraction of Time in Flow Class ---------- 
                       /Actual         Up    Down  Sub   Sup   Up    Down  Norm  Inlet 
  Conduit               Length    Dry  Dry   Dry   Crit  Crit  Crit  Crit  Ltd   Ctrl  
  -------------------------------------------------------------------------------------
  WS02003066WSF200        1.00   0.07  0.00  0.00  0.00  0.93  0.00  0.00  0.85  0.00
  WS02006287WS02006284    1.00   0.06  0.02  0.00  0.65  0.26  0.00  0.00  0.81  0.00
  WS02006284WS02006280    1.00   0.07  0.00  0.00  0.00  0.00  0.00  0.93  0.00  0.00
  WS02006280WS02006229    1.00   0.07  0.00  0.00  0.00  0.00  0.00  0.93  0.00  0.00
  WS02006229WS02006228    1.00   0.00  0.00  0.00  1.00  0.00  0.00  0.00  0.00  0.00
  WS02006256WS02006235    1.00   0.01  0.00  0.00  0.99  0.00  0.00  0.00  0.00  0.00
  WS02006253WS02006251    1.00   0.04  0.02  0.00  0.93  0.00  0.01  0.00  0.00  0.00
  WS02006252WS02006251    1.00   0.14  0.00  0.00  0.00  0.00  0.86  0.00  0.00  0.00
  WS02006251WS02006249    1.00   0.00  0.00  0.00  1.00  0.00  0.00  0.00  0.58  0.00
  WS02006249WS02006248    1.00   0.00  0.01  0.00  0.65  0.00  0.34  0.00  0.00  0.00
  WS02006248WS02006247    1.00   0.01  0.00  0.00  0.96  0.00  0.00  0.04  0.50  0.00
  WS02006247WS02006245    1.00   0.01  0.00  0.00  0.94  0.00  0.00  0.06  0.00  0.00
  WS02006245WS02006243    1.00   0.01  0.00  0.00  0.88  0.00  0.00  0.11  0.06  0.00
  WS02006243WS02006242    1.00   0.01  0.01  0.00  0.98  0.00  0.00  0.00  0.47  0.00
  WS02006242WS02006240    1.00   0.01  0.00  0.00  0.98  0.00  0.01  0.00  0.00  0.00
  WS02006240WS02006239    1.00   0.01  0.00  0.00  0.89  0.00  0.00  0.10  0.04  0.00
  WS02006239WS02006238    1.00   0.01  0.00  0.00  0.99  0.00  0.00  0.00  0.12  0.00
  WS02006238WS02006235    1.00   0.01  0.00  0.00  0.99  0.00  0.00  0.00  0.00  0.00
  WS02006235WS02006234    1.00   0.01  0.00  0.00  0.93  0.00  0.06  0.00  0.00  0.00
  WS02006234WS02006232    1.00   0.01  0.00  0.00  0.99  0.00  0.00  0.00  0.10  0.00
  WS02006232WS02006231    1.00   0.01  0.00  0.00  0.99  0.00  0.00  0.00  0.00  0.00
  WS02006231WS02006230    1.00   0.01  0.00  0.00  0.10  0.00  0.90  0.00  0.00  0.00
  WS02006230WS02006229    1.00   0.00  0.00  0.00  0.99  0.00  0.00  0.01  0.00  0.00
  WS02006228WS02006109    1.00   0.00  0.00  0.00  1.00  0.00  0.00  0.00  0.01  0.00
  WS02006116WS02004401    1.00   0.04  0.00  0.00  0.96  0.00  0.00  0.00  0.00  0.00
  WS02006115WS02006116    1.00   0.04  0.00  0.00  0.95  0.00  0.00  0.01  0.00  0.00
  WS02006113WS02006111    1.00   0.02  0.00  0.00  0.00  0.98  0.00  0.00  0.20  0.00
  WS02006112WS02006115    1.00   0.03  0.01  0.00  0.96  0.00  0.01  0.00  0.00  0.00
  WS02006111WS02006112    1.00   0.03  0.00  0.00  0.96  0.00  0.00  0.01  0.95  0.00
  WS02006110WS02006113    1.00   0.00  0.02  0.00  0.98  0.00  0.00  0.00  0.00  0.00
  WS02006109WS02006110    1.00   0.00  0.00  0.00  0.99  0.00  0.00  0.00  0.00  0.00
  WS02004411WS02004412    1.00   0.05  0.00  0.00  0.95  0.00  0.00  0.00  0.00  0.00
  WS02004401WS02004402    1.00   0.04  0.00  0.00  0.96  0.00  0.00  0.00  0.00  0.00
  WS02004413WS02003067    1.00   0.06  0.01  0.00  0.00  0.00  0.93  0.00  0.00  0.00
  WS02004412WS02004413    1.00   0.06  0.00  0.00  0.94  0.00  0.00  0.00  0.01  0.00
  WS02004410WS02004411    1.00   0.05  0.00  0.00  0.95  0.00  0.00  0.00  0.00  0.00
  WS02004409WS02004410    1.00   0.05  0.00  0.00  0.95  0.00  0.00  0.00  0.02  0.00
  WS02004407WS02004409    1.00   0.05  0.00  0.00  0.94  0.00  0.00  0.00  0.92  0.00
  WS02004406WS02004407    1.00   0.00  0.05  0.00  0.95  0.00  0.00  0.00  0.00  0.00
  WS02004405WS02004406    1.00   0.00  0.00  0.00  1.00  0.00  0.00  0.00  0.03  0.00
  WS02004404WS02004405    1.00   0.00  0.00  0.00  1.00  0.00  0.00  0.00  0.00  0.00
  WS02004403WS02004404    1.00   0.00  0.04  0.00  0.95  0.00  0.00  0.00  0.00  0.00
  WS02004402WS02004403    1.00   0.04  0.00  0.00  0.96  0.00  0.00  0.00  0.00  0.00
  WS02004139WS02001211    1.00   0.00  0.00  0.00  1.00  0.00  0.00  0.00  0.00  0.00
  WS02004138WS02004139    1.00   0.00  0.00  0.00  0.99  0.01  0.00  0.00  0.98  0.00
  WS02003067WS02003066    1.00   0.07  0.01  0.00  0.93  0.00  0.00  0.00  0.00  0.00
  WS02001213WS02003059    1.00   0.00  0.00  0.00  1.00  0.00  0.00  0.00  0.00  0.00
  WS02001212WS02001213    1.00   0.01  0.00  0.00  0.30  0.00  0.69  0.00  0.00  0.00
  WS02001211WS02001212    1.00   0.00  0.01  0.00  0.99  0.00  0.00  0.00  0.00  0.00
  WS02003072WS02003073    1.00   0.00  0.00  0.00  0.00  0.00  0.00  1.00  0.00  0.00
  WS02003069WS02003072    1.00   0.00  0.00  0.00  1.00  0.00  0.00  0.00  0.85  0.00
  WS02003060WS02003069    1.00   0.00  0.00  0.00  0.99  0.01  0.00  0.00  0.57  0.00
  WS02003059WS02003060    1.00   0.00  0.00  0.00  1.00  0.00  0.00  0.00  0.04  0.00
  HS02004901HS02004770    1.00   0.07  0.00  0.00  0.93  0.00  0.00  0.00  0.03  0.00
  HS02004876HS02004881    1.00   0.01  0.00  0.00  0.99  0.00  0.00  0.00  0.00  0.00
  HS02004870HS02004876    1.00   0.00  0.00  0.00  0.99  0.00  0.00  0.00  0.95  0.00
  HS02004842HS02004848    1.00   0.00  0.07  0.00  0.93  0.00  0.00  0.00  0.70  0.00
  HS02004837HS02004842    1.00   0.00  0.00  0.00  1.00  0.00  0.00  0.00  0.11  0.00
  HS02004830HS02004837    1.00   0.00  0.00  0.00  1.00  0.00  0.00  0.00  0.99  0.00
  HS02004824HS02004830    1.00   0.00  0.00  0.00  1.00  0.00  0.00  0.00  0.00  0.00
  HS02004817HS02004824    1.00   0.00  0.00  0.00  1.00  0.00  0.00  0.00  1.00  0.00
  HS02004770HS02004777    1.00   0.00  0.07  0.00  0.93  0.00  0.00  0.00  0.08  0.00
  HS02004799HS02004480    1.00   0.00  0.02  0.00  0.91  0.00  0.08  0.00  0.00  0.00
  HS02004792HS02004799    1.00   0.00  0.00  0.00  1.00  0.00  0.00  0.00  0.98  0.00
  HS02004788HS02004792    1.00   0.00  0.00  0.00  1.00  0.00  0.00  0.00  0.98  0.00
  HS02004785HS02004788    1.00   0.00  0.00  0.00  1.00  0.00  0.00  0.00  0.00  0.00
  HS02004777HS02004785    1.00   0.00  0.00  0.00  1.00  0.00  0.00  0.00  0.22  0.00
  HS02004480HS02004478    1.00   0.08  0.00  0.00  0.69  0.00  0.00  0.24  0.00  0.00
  HS02004479HS02004480    1.00   0.02  0.00  0.00  0.98  0.00  0.00  0.00  0.16  0.00
  HS02004862HS02004870    1.00   0.00  0.00  0.00  1.00  0.00  0.00  0.00  0.06  0.00
  HS02004848HS02004852    1.00   0.07  0.00  0.00  0.93  0.00  0.00  0.00  0.68  0.00
  HS02004856HS02004862    1.00   0.00  0.11  0.00  0.89  0.00  0.00  0.00  0.73  0.00
  HS02004852HS02004856    1.00   0.07  0.01  0.00  0.92  0.00  0.00  0.00  0.82  0.00
  HS02004802HS02004478    1.00   0.07  0.01  0.00  0.92  0.00  0.00  0.00  0.00  0.00
  HS02004478WS02006287    1.00   0.09  0.00  0.00  0.91  0.00  0.00  0.00  0.81  0.00
  HS02004817HS02004807    1.00   0.00  0.07  0.00  0.93  0.00  0.00  0.00  0.00  0.00
  HS02004807HS02004802    1.00   0.07  0.00  0.00  0.93  0.00  0.00  0.00  0.01  0.00
  YS02001759YS02001757    1.00   0.00  0.00  0.00  1.00  0.00  0.00  0.00  0.17  0.00
  YS02001762YS02001759    1.00   0.00  0.00  0.00  1.00  0.00  0.00  0.00  0.05  0.00
  YS02001765YS02001762    1.00   0.00  0.00  0.00  1.00  0.00  0.00  0.00  0.23  0.00
  YS02001770YS02001767    1.00   0.00  0.00  0.00  1.00  0.00  0.00  0.00  0.00  0.00
  YS02001774YS02001770    1.00   0.00  0.09  0.00  0.91  0.00  0.00  0.00  0.07  0.00
  YS02001779YS02001774    1.00   0.00  0.00  0.00  1.00  0.00  0.00  0.00  0.28  0.00
  YS02001649YS02001757    1.00   0.00  0.00  0.00  1.00  0.00  0.00  0.00  0.19  0.00
  YS02001767YS02001765    1.00   0.00  0.00  0.00  1.00  0.00  0.00  0.00  0.01  0.00
  YS02006561YS02001783    1.00   0.11  0.00  0.00  0.02  0.87  0.00  0.00  0.72  0.00
  YS02001783YS02001784    1.00   0.00  0.11  0.00  0.89  0.00  0.00  0.00  0.12  0.00
  YS02001784YS02001785    1.00   0.00  0.00  0.00  1.00  0.00  0.00  0.00  0.27  0.00
  YS02001788YS02001790    1.00   0.00  0.00  0.00  0.19  0.81  0.00  0.00  0.97  0.00
  YS02001790YS02001791    1.00   0.00  0.00  0.00  0.09  0.91  0.00  0.00  0.31  0.00
  YS02001791YS02001793    1.00   0.00  0.00  0.00  0.13  0.87  0.00  0.00  0.02  0.00
  YS02001910YS02001907    1.00   0.00  0.00  0.00  0.99  0.00  0.00  0.01  0.13  0.00
  YS02001786YS02001788    1.00   0.00  0.00  0.00  0.18  0.82  0.00  0.00  0.00  0.00
  YS02001915YS02001910    1.00   0.00  0.00  0.00  1.00  0.00  0.00  0.00  0.25  0.00
  YS02001918YS02001915    1.00   0.00  0.00  0.00  0.99  0.00  0.00  0.00  0.80  0.00
  YS02001923YS02001920    1.00   0.00  0.00  0.00  1.00  0.00  0.00  0.00  1.00  0.00
  YS02001926YS02001923    1.00   0.00  0.05  0.00  0.00  0.00  0.95  0.00  0.00  0.00
  YS02001929YS02001926    1.00   0.00  0.07  0.00  0.93  0.00  0.00  0.00  0.86  0.00
  YS02001920YS02001918    1.00   0.00  0.00  0.00  1.00  0.00  0.00  0.00  0.00  0.00
  YS02001629YS02163301    1.00   0.10  0.01  0.00  0.89  0.00  0.00  0.00  0.00  0.00
  YS02001619YS02001622    1.00   0.07  0.00  0.00  0.93  0.00  0.00  0.00  0.00  0.00
  YS02001622YS02001625    1.00   0.07  0.00  0.00  0.93  0.00  0.00  0.00  0.14  0.00
  YS02001625YS02001629    1.00   0.07  0.05  0.00  0.86  0.00  0.02  0.00  0.00  0.00
  YS02163301YS02001633    1.00   0.00  0.10  0.00  0.90  0.00  0.00  0.00  0.00  0.00
  YS02163601YS02164001    1.00   0.00  0.05  0.00  0.95  0.00  0.00  0.00  0.00  0.00
  YS02164001YS02001641    1.00   0.00  0.05  0.00  0.95  0.00  0.00  0.00  0.07  0.00
  YS02001641YS02001644    1.00   0.00  0.00  0.00  1.00  0.00  0.00  0.00  0.00  0.00
  YS02001647YS02001649    1.00   0.00  0.11  0.00  0.89  0.00  0.00  0.00  0.01  0.00
  YS02006553YS02006556    1.00   0.00  0.00  0.00  1.00  0.00  0.00  0.00  0.03  0.00
  YS02006556YS02006558    1.00   0.00  0.00  0.00  1.00  0.00  0.00  0.00  0.00  0.00
  YSB6556YSB1171          1.00   0.02  0.04  0.00  0.93  0.00  0.00  0.00  0.00  0.00
  YS02001907YS02006553    1.00   0.00  0.01  0.00  0.99  0.00  0.00  0.00  0.00  0.00
  YS02006558YS02006561    1.00   0.11  0.00  0.00  0.00  0.89  0.00  0.00  0.71  0.00
  YS02001633YS02163601    1.00   0.00  0.00  0.00  1.00  0.00  0.00  0.00  0.20  0.00
  YS02001644YS02001647    1.00   0.00  0.11  0.00  0.89  0.00  0.00  0.00  0.00  0.00
  YS02001745YS02001748    1.00   0.00  0.00  0.00  0.41  0.04  0.00  0.55  0.42  0.00
  YS02001748YS02001751    1.00   0.00  0.00  0.00  0.96  0.04  0.00  0.00  0.31  0.00
  YS02001751YS02001754    1.00   0.00  0.00  0.00  0.87  0.00  0.00  0.12  0.03  0.00
  YS02001754YS02001757    1.00   0.00  0.00  0.00  1.00  0.00  0.00  0.00  0.28  0.00
  YS02001882YS02001884    1.00   0.09  0.01  0.00  0.90  0.00  0.00  0.00  0.00  0.00
  YS02001884YS02001887    1.00   0.05  0.02  0.00  0.94  0.00  0.00  0.00  0.00  0.00
  YS02001890YS02001895    1.00   0.00  0.10  0.00  0.90  0.00  0.00  0.00  0.00  0.00
  YS02001895YS02001898    1.00   0.10  0.00  0.00  0.88  0.00  0.01  0.00  0.00  0.00
  YS02001898YS02001901    1.00   0.10  0.01  0.00  0.89  0.00  0.00  0.00  0.02  0.00
  YS02001901YS02001904    1.00   0.10  0.00  0.00  0.90  0.00  0.00  0.00  0.00  0.00
  YS02001904YS02001907    1.00   0.00  0.10  0.00  0.90  0.00  0.00  0.00  0.00  0.00
  YS02001887YS02001890    1.00   0.00  0.00  0.00  0.99  0.00  0.01  0.00  0.00  0.00
  YS02001652YS02001649    1.00   0.00  0.00  0.00  1.00  0.00  0.00  0.00  0.27  0.00
  YS02001655YS02001652    1.00   0.00  0.00  0.00  0.88  0.00  0.00  0.12  0.03  0.00
  YS02001658YS02001655    1.00   0.00  0.09  0.00  0.87  0.04  0.00  0.00  0.35  0.00
  YS02001661YS02001658    1.00   0.09  0.00  0.00  0.42  0.49  0.00  0.00  0.72  0.00
  YS02001664YS02001661    1.00   0.07  0.00  0.00  0.93  0.00  0.00  0.00  0.86  0.00
  YSB1154YSB6556          1.00   0.07  0.00  0.00  0.93  0.00  0.00  0.00  0.02  0.00
  YSB1174YSB1171          1.00   0.04  0.02  0.00  0.94  0.00  0.00  0.00  0.00  0.00
  YSB1171HS02004479       1.00   0.02  0.00  0.00  0.96  0.00  0.00  0.02  0.13  0.00
  HS02004881HS02006253    1.00   0.04  0.00  0.00  0.37  0.02  0.00  0.57  0.19  0.00
  YS02001793JiankangQianchi    1.00   0.00  0.00  0.00  0.73  0.27  0.00  0.00  0.65  0.00
  YS02001757CaochengTiaoxuchi    1.00   0.00  0.14  0.00  0.86  0.00  0.00  0.00  0.00  0.00
  WSF200WS02003060        1.00   0.00  0.07  0.00  0.40  0.53  0.00  0.00  0.61  0.00
  1                       1.00   0.00  0.00  0.00  0.00  1.00  0.00  0.00  0.24  0.00
  2                       1.00   0.97  0.00  0.00  0.00  0.03  0.00  0.00  0.01  0.00
  3                       1.00   0.64  0.00  0.00  0.00  0.36  0.00  0.00  0.37  0.00
  4                       1.00   1.00  0.00  0.00  0.00  0.00  0.00  0.00  0.00  0.00
  
  
  *************************
  Conduit Surcharge Summary
  *************************
  
  ----------------------------------------------------------------------------
                                                           Hours        Hours 
                         --------- Hours Full --------   Above Full   Capacity
  Conduit                Both Ends  Upstream  Dnstream   Normal Flow   Limited
  ----------------------------------------------------------------------------
  WS02006229WS02006228        0.09      0.11      0.09      0.48         0.09
  WS02006256WS02006235        3.67      3.67      6.36      1.85         0.01
  WS02006252WS02006251        0.05      0.05      0.13      0.11         0.01
  WS02006251WS02006249        0.01      0.01      0.01      0.04         0.01
  WS02006249WS02006248        0.01      0.01      0.01      0.87         0.01
  WS02006247WS02006245        0.01      0.01      0.01      1.64         0.01
  WS02006242WS02006240        0.01      0.01      0.02      0.11         0.01
  WS02006239WS02006238        0.01      0.01      0.04      0.01         0.01
  WS02006238WS02006235        0.01      0.01      0.08      0.01         0.01
  WS02006235WS02006234        0.01      0.01      0.01      3.54         0.01
  WS02006234WS02006232        0.01      0.01      0.09      0.01         0.01
  WS02006232WS02006231        0.01      0.01      0.09      0.01         0.01
  WS02006231WS02006230        0.01      0.01      0.01      4.08         0.01
  WS02006230WS02006229        0.17      0.41      0.17      4.77         0.17
  WS02006228WS02006109        0.10      0.14      0.10      1.32         0.10
  WS02006111WS02006112        0.01      0.01      0.57      0.01         0.01
  WS02006110WS02006113        0.01      0.01      0.12      0.01         0.01
  WS02006109WS02006110        0.01      0.01      0.14      0.01         0.01
  WS02004404WS02004405        0.01      0.01      0.01      4.22         0.01
  YS02001759YS02001757        0.88      0.88      2.92      0.01         0.01
  YS02001762YS02001759        0.01      0.01      0.88      0.01         0.01
  YS02001649YS02001757        0.08      0.08      2.92      0.01         0.01
  YS02001788YS02001790        0.01      0.01      0.01      0.01         0.01
  YS02001790YS02001791        0.01      0.01      0.16      0.01         0.01
  YS02001791YS02001793        0.16      0.16      0.39      0.01         0.01
  YS02001647YS02001649        0.01      0.01      0.08      0.01         0.01
  YS02001754YS02001757        0.01      0.01      2.92      0.01         0.01
  YS02001652YS02001649        0.01      0.01      0.08      0.01         0.01
  YS02001793JiankangQianchi        0.33      0.33      2.74      0.01         0.01
  YS02001757CaochengTiaoxuchi        0.01      0.01      2.92      0.01         0.01
  
  
  ***************
  Pumping Summary
  ***************
  
  ---------------------------------------------------------------------------------------------------------
                                                  Min       Avg       Max     Total     Power    % Time Off
                        Percent   Number of      Flow      Flow      Flow    Volume     Usage    Pump Curve
  Pump                 Utilized   Start-Ups       LPS       LPS       LPS  10^6 ltr     Kw-hr    Low   High
  ---------------------------------------------------------------------------------------------------------
  CC-Pump-1               23.40           4      0.00    119.71    200.00     0.720      2.75    0.0   63.6
  CC-Pump-2               24.65           5      0.00    119.12    200.00     0.730      2.66    0.0   56.8
  JK-Pump-1               25.52           5      0.00    119.66    299.99     0.606     10.45    0.0    0.0
  JK-Pump-2               29.79           4      0.00    205.88    300.00     1.197     15.65    0.0    0.0
  XR-Pump-1               70.19          10      0.00     52.98     95.00     1.111      5.05    0.0    0.0
  XR-Pump-2                4.26           1      0.00     43.40     95.00     0.057      0.25    0.0    0.0
  XR-Pump-3               17.01           4      0.00     50.54     94.97     0.228      1.01    0.0    0.0
  XR-Pump-4               23.40           3      0.00     56.16     95.00     0.342      1.53    0.0    0.0
  

  Analysis begun on:  Wed Jan  5 21:25:35 2022
  Analysis ended on:  Wed Jan  5 21:25:36 2022
  Total elapsed time: 00:00:01