
  EPA STORM WATER MANAGEMENT MODEL - VERSION 5.1 (Build 5.3.0.dev0)
  --------------------------------------------------------------

  WARNING 04: minimum elevation drop used for Conduit WS02004404WS02004405
  WARNING 03: negative offset ignored for Link YS02001904YS02001907
  
  *********************************************************
  NOTE: The summary statistics displayed in this report are
  based on results found at every computational time step,  
  not just on results from each reporting time step.
  *********************************************************
  
  ****************
  Analysis Options
  ****************
  Flow Units ............... LPS
  Process Models:
    Rainfall/Runoff ........ YES
    RDII ................... NO
    Snowmelt ............... NO
    Groundwater ............ NO
    Flow Routing ........... YES
    Ponding Allowed ........ NO
    Water Quality .......... NO
  Infiltration Method ...... HORTON
  Flow Routing Method ...... DYNWAVE
  Surcharge Method ......... EXTRAN
  Starting Date ............ 08/28/2015 08:00:00
  Ending Date .............. 08/28/2015 15:50:00
  Antecedent Dry Days ...... 8.0
  Report Time Step ......... 00:01:00
  Wet Time Step ............ 00:01:00
  Dry Time Step ............ 00:01:00
  Routing Time Step ........ 5.00 sec
  Variable Time Step ....... YES
  Maximum Trials ........... 8
  Number of Threads ........ 4
  Head Tolerance ........... 0.001500 m
  
  
  **************************        Volume         Depth
  Runoff Quantity Continuity     hectare-m            mm
  **************************     ---------       -------
  Total Precipitation ......         2.691         5.892
  Evaporation Loss .........         0.000         0.000
  Infiltration Loss ........         0.676         1.480
  Surface Runoff ...........         1.133         2.480
  Final Storage ............         0.883         1.933
  Continuity Error (%) .....        -0.018
  
  
  **************************        Volume        Volume
  Flow Routing Continuity        hectare-m      10^6 ltr
  **************************     ---------     ---------
  Dry Weather Inflow .......         0.616         6.165
  Wet Weather Inflow .......         1.132        11.322
  Groundwater Inflow .......         0.000         0.000
  RDII Inflow ..............         0.000         0.000
  External Inflow ..........         0.102         1.024
  External Outflow .........         0.706         7.061
  Flooding Loss ............         0.651         6.511
  Evaporation Loss .........         0.000         0.000
  Exfiltration Loss ........         0.000         0.000
  Initial Stored Volume ....         0.076         0.761
  Final Stored Volume ......         0.568         5.683
  Continuity Error (%) .....         0.075
  
  
  *************************
  Highest Continuity Errors
  *************************
  Node HS02004842 (28.52%)
  Node YS02001774 (27.85%)
  Node YS02001884 (22.79%)
  Node YSB1171 (6.99%)
  Node HS02004901 (5.52%)
  
  
  ***************************
  Time-Step Critical Elements
  ***************************
  Link WS02006252WS02006251 (64.81%)
  Link 3 (16.42%)
  Link WS02006280WS02006229 (6.42%)
  Link WS02006238WS02006235 (3.07%)
  Link 2 (2.00%)
  
  
  ********************************
  Highest Flow Instability Indexes
  ********************************
  Link WS02006113WS02006111 (55)
  Link WS02006111WS02006112 (11)
  Link YS02001793JiankangQianchi (11)
  Link YS02001791YS02001793 (9)
  Link YS02001629YS02163301 (9)
  
  
  *************************
  Routing Time Step Summary
  *************************
  Minimum Time Step           :     0.50 sec
  Average Time Step           :     1.28 sec
  Maximum Time Step           :     5.00 sec
  Percent in Steady State     :    -0.00
  Average Iterations per Step :     2.94
  Percent Not Converging      :    10.29
  
  
  ***************************
  Subcatchment Runoff Summary
  ***************************
  
  ------------------------------------------------------------------------------------------------------------------------------
                            Total      Total      Total      Total     Imperv       Perv      Total       Total     Peak  Runoff
                           Precip      Runon       Evap      Infil     Runoff     Runoff     Runoff      Runoff   Runoff   Coeff
  Subcatchment                 mm         mm         mm         mm         mm         mm         mm    10^6 ltr      LPS
  ------------------------------------------------------------------------------------------------------------------------------
  sub0                       5.89       0.00       0.00       0.41       4.21       0.00       4.21        0.00     1.47   0.715
  sub1                       5.89       0.00       0.00       0.65       3.99       0.00       3.99        0.03     7.65   0.677
  sub2                       5.89       0.00       0.00       2.18       2.81       0.00       2.81        0.03     6.74   0.476
  sub3                       5.89       0.00       0.00       2.18       2.77       0.00       2.77        0.06    13.82   0.470
  sub4                       5.89       0.00       0.00       0.65       3.85       0.00       3.85        0.08    15.45   0.654
  sub5                       5.89       0.00       0.00       0.41       4.17       0.00       4.17        0.05    13.60   0.707
  sub7                       5.89       0.00       0.00       0.53       4.11       0.00       4.11        0.01     4.82   0.697
  sub8                       5.89       0.00       0.00       0.53       4.10       0.00       4.10        0.03     8.49   0.696
  sub9                       5.89       0.00       0.00       0.53       4.10       0.00       4.10        0.02     6.29   0.695
  sub10                      5.89       0.00       0.00       0.47       4.13       0.00       4.13        0.05    13.58   0.701
  sub11                      5.89       0.00       0.00       0.47       4.15       0.00       4.15        0.05    15.97   0.704
  sub12                      5.89       0.00       0.00       0.77       3.94       0.00       3.94        0.03    13.59   0.668
  sub14                      5.89       0.00       0.00       0.53       4.09       0.00       4.09        0.04    12.29   0.695
  sub15                      5.89       0.00       0.00       1.77       3.15       0.00       3.15        0.05    16.66   0.534
  sub16                      5.89       0.00       0.00       1.94       3.03       0.00       3.03        0.03    11.93   0.514
  sub17                      5.89       0.00       0.00       1.89       3.07       0.00       3.07        0.03     9.64   0.522
  sub22                      5.89       0.00       0.00       2.53       2.57       0.00       2.57        0.16    54.70   0.436
  sub23                      5.89       0.00       0.00       2.18       2.84       0.00       2.84        0.14    46.61   0.482
  sub60                      5.89       0.00       0.00       0.71       2.76       0.00       2.76        0.84    76.77   0.469
  sub61                      5.89       0.00       0.00       1.00       2.95       0.00       2.95        0.91    96.90   0.501
  sub62                      5.89       0.00       0.00       0.47       3.17       0.00       3.17        0.97    98.85   0.538
  sub63                      5.89       0.00       0.00       1.71       2.63       0.00       2.63        0.80    90.67   0.447
  sub64                      5.89       0.00       0.00       0.88       2.64       0.00       2.64        0.80    72.89   0.448
  sub65                      5.89       0.00       0.00       0.77       2.67       0.00       2.67        0.82    73.94   0.453
  sub66                      5.89       0.00       0.00       1.71       2.30       0.00       2.30        0.71    66.93   0.391
  sub67                      5.89       0.00       0.00       0.47       3.49       0.00       3.49        1.08   127.64   0.592
  sub68                      5.89       0.00       0.00       0.82       3.14       0.00       3.14        0.97   107.31   0.534
  sub69                      5.89       0.00       0.00       0.88       3.40       0.00       3.40        0.79   107.30   0.576
  sub70                      5.89       3.47       0.00       3.18       4.16       0.00       4.16        0.95    85.44   0.445
  sub71                      5.89       0.00       0.00       0.47       3.03       0.00       3.03        0.72    68.84   0.514
  sub72                      5.89       0.00       0.00       0.41       2.13       0.00       2.13        0.43    32.41   0.362
  sub73                      5.89       4.05       0.00       3.38       4.23       0.00       4.23        0.99    73.37   0.426
  sub74                      5.89       0.00       0.00       4.42       1.02       0.00       1.02        0.41    60.02   0.174
  
  
  ******************
  Node Depth Summary
  ******************
  
  ---------------------------------------------------------------------------------
                                 Average  Maximum  Maximum  Time of Max    Reported
                                   Depth    Depth      HGL   Occurrence   Max Depth
  Node                 Type       Meters   Meters   Meters  days hr:min      Meters
  ---------------------------------------------------------------------------------
  WS02001211           JUNCTION     0.44     0.60     5.44     0  01:41        0.60
  WS02001212           JUNCTION     0.20     0.33     5.39     0  01:42        0.33
  WS02001213           JUNCTION     0.42     0.56     5.32     0  02:44        0.56
  WS02003069           JUNCTION     0.27     0.39     4.98     0  02:44        0.39
  WS02003072           JUNCTION     0.34     0.46     4.83     0  02:45        0.46
  WS02003073           JUNCTION     0.19     0.27     4.34     0  02:46        0.27
  WS02003060           JUNCTION     0.25     0.35     5.28     0  02:43        0.35
  WS02003066           JUNCTION     0.18     0.25     5.81     0  04:21        0.25
  WS02003059           JUNCTION     0.50     0.62     5.31     0  02:43        0.62
  WS02003067           JUNCTION     0.47     0.62     5.94     0  04:21        0.62
  WS02004401           JUNCTION     0.54     0.71     6.71     0  04:17        0.71
  WS02004402           JUNCTION     0.57     0.75     6.71     0  04:17        0.75
  WS02004403           JUNCTION     0.60     0.77     6.70     0  04:17        0.77
  WS02004404           JUNCTION     0.67     0.84     6.69     0  04:17        0.84
  WS02004406           JUNCTION     0.69     0.85     6.68     0  04:17        0.85
  WS02004409           JUNCTION     0.35     0.53     6.30     0  04:19        0.53
  WS02004410           JUNCTION     0.38     0.55     6.27     0  04:20        0.55
  WS02004411           JUNCTION     0.40     0.57     6.25     0  04:20        0.57
  WS02004412           JUNCTION     0.42     0.58     6.22     0  04:20        0.58
  WS02004413           JUNCTION     0.58     0.75     6.22     0  04:21        0.75
  WS02004405           JUNCTION     0.67     0.84     6.69     0  04:17        0.84
  WS02006109           JUNCTION     0.60     0.79     7.41     0  04:12        0.79
  WS02006110           JUNCTION     0.61     0.79     7.37     0  04:13        0.79
  WS02006111           JUNCTION     0.16     0.24     6.94     0  04:13        0.24
  WS02006112           JUNCTION     0.69     0.89     6.77     0  04:16        0.89
  WS02006113           JUNCTION     0.25     0.37     7.26     0  04:13        0.37
  WS02006115           JUNCTION     0.42     0.60     6.74     0  04:16        0.60
  WS02006116           JUNCTION     0.51     0.69     6.73     0  04:16        0.69
  WS02006230           JUNCTION     0.52     0.77     7.52     0  04:12        0.77
  WS02006231           JUNCTION     0.33     0.52     7.65     0  04:12        0.52
  WS02006232           JUNCTION     0.45     0.67     7.71     0  04:12        0.67
  WS02006234           JUNCTION     0.35     0.59     7.75     0  04:11        0.59
  WS02006235           JUNCTION     0.38     0.63     7.79     0  04:11        0.63
  WS02006238           JUNCTION     0.40     0.66     7.81     0  04:11        0.66
  WS02006240           JUNCTION     0.30     0.60     7.90     0  04:11        0.60
  WS02006242           JUNCTION     0.36     0.69     7.96     0  04:11        0.69
  WS02006243           JUNCTION     0.25     0.59     8.01     0  04:10        0.59
  WS02006245           JUNCTION     0.25     0.57     8.06     0  04:10        0.57
  WS02006247           JUNCTION     0.27     0.60     8.10     0  04:10        0.60
  WS02006248           JUNCTION     0.23     0.55     8.13     0  04:10        0.55
  WS02006249           JUNCTION     0.27     0.58     8.18     0  04:10        0.58
  WS02006239           JUNCTION     0.35     0.64     7.85     0  04:11        0.64
  WS02006251           JUNCTION     0.25     0.60     8.27     0  04:10        0.60
  WS02006252           JUNCTION     0.23     0.59     8.83     0  04:05        0.59
  WS02006253           JUNCTION     0.28     0.63     8.27     0  04:10        0.63
  WS02006256           JUNCTION     0.77     1.15     8.09     0  00:00        1.11
  WS02004138           JUNCTION     0.06     0.14     7.39     0  01:40        0.14
  WS02004407           JUNCTION     0.16     0.24     6.55     0  04:17        0.24
  WS02006228           JUNCTION     0.58     0.79     7.44     0  04:12        0.79
  WS02006229           JUNCTION     0.55     0.76     7.46     0  04:12        0.76
  WS02006280           JUNCTION     0.05     0.15     8.42     0  02:17        0.15
  WS02006284           JUNCTION     0.34     0.48     8.88     0  02:17        0.48
  WS02006287           JUNCTION     0.07     0.21     9.17     0  02:17        0.21
  WSF200               JUNCTION     0.15     0.23     5.47     0  04:20        0.23
  HS02004901           JUNCTION     0.10     0.23    10.06     0  02:15        0.23
  HS02004881           JUNCTION     0.01     0.02     9.05     0  02:17        0.02
  HS02004876           JUNCTION     0.03     0.10     9.13     0  02:15        0.10
  HS02004870           JUNCTION     0.01     0.04     9.33     0  02:17        0.04
  HS02004862           JUNCTION     0.01     0.05     9.43     0  02:18        0.05
  HS02004856           JUNCTION     0.07     0.10     9.53     0  02:17        0.10
  HS02004852           JUNCTION     0.01     0.03     9.54     0  02:19        0.03
  HS02004848           JUNCTION     0.01     0.03     9.63     0  02:17        0.03
  HS02004842           JUNCTION     0.32     0.36     9.63     0  02:16        0.36
  HS02004837           JUNCTION     0.02     0.05     9.63     0  02:17        0.05
  HS02004830           JUNCTION     0.03     0.06     9.53     0  02:17        0.06
  HS02004824           JUNCTION     0.02     0.04     9.44     0  02:20        0.04
  HS02004817           JUNCTION     0.41     0.53     9.37     0  02:18        0.53
  HS02004807           JUNCTION     0.10     0.20     9.37     0  02:18        0.20
  HS02004802           JUNCTION     0.14     0.24     9.37     0  02:18        0.24
  HS02004799           JUNCTION     0.09     0.26     9.47     0  02:16        0.26
  HS02004792           JUNCTION     0.02     0.10     9.62     0  02:15        0.10
  HS02004788           JUNCTION     0.02     0.07     9.97     0  02:16        0.07
  HS02004785           JUNCTION     0.03     0.14    10.04     0  02:15        0.14
  HS02004777           JUNCTION     0.12     0.25    10.05     0  02:15        0.25
  HS02004770           JUNCTION     0.09     0.22    10.06     0  02:15        0.22
  HS02004480           JUNCTION     0.06     0.20     9.44     0  02:16        0.20
  HS02004479           JUNCTION     0.09     0.24     9.44     0  02:16        0.24
  HS02004478           JUNCTION     0.05     0.13     9.36     0  02:17        0.13
  YS02001745           JUNCTION     0.30     0.59     8.10     0  07:49        0.59
  YS02001748           JUNCTION     0.66     1.03     8.10     0  07:50        1.03
  YS02001751           JUNCTION     0.83     1.23     8.11     0  07:49        1.23
  YS02001754           JUNCTION     1.08     1.50     8.11     0  07:49        1.50
  YS02001762           JUNCTION     1.26     1.71     8.11     0  07:48        1.71
  YS02001765           JUNCTION     1.22     1.66     8.11     0  07:48        1.66
  YS02001767           JUNCTION     1.18     1.65     8.14     0  04:18        1.62
  YS02001770           JUNCTION     1.18     1.73     8.22     0  04:18        1.61
  YS02001774           JUNCTION     1.24     1.83     8.25     0  04:18        1.69
  YS02001779           JUNCTION     1.00     1.59     8.28     0  04:14        1.42
  YS02001882           JUNCTION     0.27     0.46     7.18     0  02:50        0.46
  YS02001884           JUNCTION     0.36     0.56     7.18     0  02:51        0.56
  YS02001759           JUNCTION     1.30     1.75     8.11     0  07:49        1.74
  YS02001887           JUNCTION     0.44     0.64     7.18     0  02:51        0.64
  YS02001890           JUNCTION     0.47     0.67     7.17     0  02:50        0.67
  YS02001898           JUNCTION     0.24     0.42     7.16     0  02:52        0.42
  YS02001901           JUNCTION     0.36     0.55     7.16     0  02:51        0.55
  YS02001904           JUNCTION     0.34     0.53     7.16     0  02:51        0.53
  YS02001907           JUNCTION     0.66     0.87     7.16     0  02:52        0.87
  YS02001910           JUNCTION     0.45     0.65     7.16     0  02:52        0.65
  YS02001915           JUNCTION     0.26     0.44     7.16     0  02:52        0.44
  YS02001918           JUNCTION     0.07     0.10     7.16     0  03:03        0.10
  YS02001619           JUNCTION     0.80     1.21     8.14     0  07:45        1.19
  YS02001629           JUNCTION     1.13     1.57     8.12     0  07:45        1.57
  YS02001641           JUNCTION     1.23     1.68     8.12     0  07:45        1.68
  YS02001644           JUNCTION     1.24     1.69     8.12     0  07:49        1.68
  YS02001652           JUNCTION     1.09     1.53     8.13     0  03:56        1.51
  YS02001655           JUNCTION     0.86     1.55     8.40     0  03:56        1.26
  YS02001920           JUNCTION     0.17     0.21     7.21     0  03:02        0.21
  YS02001923           JUNCTION     0.06     0.08     7.34     0  03:02        0.08
  YS02001926           JUNCTION     0.14     0.18     7.62     0  03:01        0.18
  YS02001929           JUNCTION     0.06     0.09     7.78     0  03:01        0.09
  YS02001658           JUNCTION     0.61     0.97     8.11     0  07:48        0.96
  YS02001661           JUNCTION     0.40     0.70     8.11     0  07:48        0.70
  YS02001664           JUNCTION     0.08     0.19     8.11     0  07:46        0.18
  YS02001622           JUNCTION     0.82     1.23     8.13     0  07:45        1.22
  YS02001633           JUNCTION     1.22     1.66     8.11     0  07:45        1.66
  YS02001649           JUNCTION     1.27     1.72     8.11     0  07:49        1.72
  YS02001757           JUNCTION     1.39     1.85     8.11     0  07:49        1.85
  YS02001895           JUNCTION     0.24     0.42     7.17     0  02:51        0.42
  YS02001625           JUNCTION     1.09     1.53     8.13     0  07:45        1.52
  YS02163301           JUNCTION     1.16     1.60     8.12     0  07:49        1.60
  YS02163601           JUNCTION     1.27     1.72     8.12     0  07:45        1.71
  YS02164001           JUNCTION     1.21     1.66     8.12     0  07:45        1.65
  YS02001647           JUNCTION     1.07     1.50     8.11     0  07:49        1.50
  YSB1154              JUNCTION     0.23     0.39     9.45     0  02:16        0.39
  YSB6556              JUNCTION     0.12     0.28     9.44     0  02:16        0.28
  YSB1174              JUNCTION     0.18     0.34     9.44     0  02:16        0.34
  YSB1171              JUNCTION     0.38     0.54     9.44     0  02:16        0.54
  YS02006553           JUNCTION     0.66     0.87     7.16     0  02:52        0.87
  YS02006561           JUNCTION     0.13     0.23     6.89     0  02:51        0.23
  YS02006556           JUNCTION     0.64     0.84     7.15     0  02:51        0.84
  YS02006558           JUNCTION     0.68     0.88     7.15     0  02:51        0.88
  YS02001783           JUNCTION     0.28     0.66     6.80     0  02:39        0.60
  YS02001784           JUNCTION     0.33     0.73     6.79     0  02:40        0.72
  YS02001786           JUNCTION     0.32     0.72     6.75     0  02:40        0.72
  YS02001788           JUNCTION     0.29     0.75     6.73     0  02:39        0.71
  YS02001790           JUNCTION     0.42     1.22     6.86     0  02:37        1.02
  YS02001791           JUNCTION     0.46     1.24     6.71     0  02:36        1.16
  YS02001793           JUNCTION     0.76     1.79     6.62     0  02:39        1.78
  WS02004139           JUNCTION     0.37     0.53     5.44     0  01:41        0.53
  WSC                  OUTFALL      0.19     0.27     0.94     0  02:46        0.27
  3                    OUTFALL      0.03     0.13     6.13     0  00:00        0.11
  4                    OUTFALL      0.00     0.08     7.08     0  04:10        0.08
  5                    OUTFALL      0.00     0.00     5.00     0  00:00        0.00
  JK-storage           STORAGE      4.08     5.80     6.60     0  02:38        5.80
  CC-storage           STORAGE      0.70     1.10     8.10     0  07:50        1.10
  XR-storage           STORAGE      7.63     7.72     5.72     0  00:29        7.72
  
  
  *******************
  Node Inflow Summary
  *******************
  
  -------------------------------------------------------------------------------------------------
                                  Maximum  Maximum                  Lateral       Total        Flow
                                  Lateral    Total  Time of Max      Inflow      Inflow     Balance
                                   Inflow   Inflow   Occurrence      Volume      Volume       Error
  Node                 Type           LPS      LPS  days hr:min    10^6 ltr    10^6 ltr     Percent
  -------------------------------------------------------------------------------------------------
  WS02001211           JUNCTION      7.35   189.80     0  01:40       0.207        1.86       0.832
  WS02001212           JUNCTION      0.00   184.01     0  01:41           0        1.84       0.072
  WS02001213           JUNCTION      0.00   182.54     0  01:42           0        1.85       0.784
  WS02003069           JUNCTION      0.32   467.97     0  02:44     0.00902        6.37       0.178
  WS02003072           JUNCTION      0.00   467.61     0  02:44           0        6.36       0.264
  WS02003073           JUNCTION      1.82   468.90     0  02:45      0.0514        6.39       0.279
  WS02003060           JUNCTION     16.53   467.77     0  02:43       0.466         6.4       0.168
  WS02003066           JUNCTION      0.00   356.01     0  04:21           0        4.11       0.060
  WS02003059           JUNCTION      0.00   180.01     0  01:42           0        1.86       1.240
  WS02003067           JUNCTION      0.00   355.99     0  04:21           0        4.11       0.145
  WS02004401           JUNCTION      0.00   362.88     0  04:15           0        4.25       0.303
  WS02004402           JUNCTION      0.00   361.89     0  04:15           0        4.24       0.302
  WS02004403           JUNCTION      0.00   361.24     0  04:16           0        4.23       0.288
  WS02004404           JUNCTION      0.16   360.99     0  04:16     0.00457        4.22       0.233
  WS02004406           JUNCTION      0.00   360.73     0  04:17           0         4.2       0.576
  WS02004409           JUNCTION      0.00   360.60     0  04:17           0        4.17       0.165
  WS02004410           JUNCTION      0.00   358.93     0  04:18           0        4.16       0.212
  WS02004411           JUNCTION      0.00   357.56     0  04:19           0        4.15       0.240
  WS02004412           JUNCTION      0.00   356.70     0  04:20           0        4.14       0.289
  WS02004413           JUNCTION      0.00   356.19     0  04:20           0        4.13       0.467
  WS02004405           JUNCTION      0.04   360.88     0  04:16     0.00107        4.21       0.350
  WS02006109           JUNCTION      1.23   368.12     0  04:12      0.0347        4.29       0.206
  WS02006110           JUNCTION      0.00   368.11     0  04:12           0        4.28       0.224
  WS02006111           JUNCTION      0.00   374.95     0  04:12           0        4.27       0.033
  WS02006112           JUNCTION      9.64   368.68     0  04:13      0.0263        4.29       0.451
  WS02006113           JUNCTION      0.00   368.10     0  04:13           0        4.27       0.061
  WS02006115           JUNCTION      0.00   366.44     0  04:14           0        4.27       0.214
  WS02006116           JUNCTION      0.00   364.29     0  04:14           0        4.26       0.226
  WS02006230           JUNCTION     10.28   346.54     0  04:12        0.29        3.37       0.193
  WS02006231           JUNCTION      0.00   336.34     0  04:12           0        3.08       0.013
  WS02006232           JUNCTION      0.00   336.40     0  04:11           0        3.08       0.199
  WS02006234           JUNCTION      0.00   336.51     0  04:11           0        3.08      -0.068
  WS02006235           JUNCTION      0.00   336.61     0  04:11           0        3.13       0.145
  WS02006238           JUNCTION      0.00   336.64     0  04:11           0        2.16      -0.179
  WS02006240           JUNCTION      0.00   337.37     0  04:07           0        2.12       0.073
  WS02006242           JUNCTION      0.00   340.43     0  04:02           0         2.1       0.100
  WS02006243           JUNCTION      0.00   347.94     0  04:01           0        2.09      -0.218
  WS02006245           JUNCTION      0.00   352.16     0  04:01           0         2.1       0.458
  WS02006247           JUNCTION      0.00   355.89     0  04:01           0         2.1       0.041
  WS02006248           JUNCTION      0.00   359.59     0  04:01           0        2.09      -0.205
  WS02006249           JUNCTION      0.00   402.48     0  04:09           0        2.15       0.328
  WS02006239           JUNCTION      0.00   336.75     0  04:11           0        2.13      -0.410
  WS02006251           JUNCTION      0.08   403.08     0  04:08     0.00217        2.17      -0.038
  WS02006252           JUNCTION      0.00   400.00     0  04:00           0           2       0.007
  WS02006253           JUNCTION      1.47    42.48     0  02:16     0.00341       0.169       0.072
  WS02006256           JUNCTION      0.00   300.00     0  00:00           0        1.63       0.112
  WS02004138           JUNCTION      0.00   189.98     0  02:40           0        1.65      -0.074
  WS02004407           JUNCTION      0.00   360.65     0  04:17           0        4.17       0.069
  WS02006228           JUNCTION      0.00   366.88     0  04:12           0        4.26       0.151
  WS02006229           JUNCTION      0.00   366.90     0  04:12           0        4.27       0.214
  WS02006280           JUNCTION      0.00   217.54     0  02:17           0       0.907       0.008
  WS02006284           JUNCTION      0.10   217.53     0  02:17      0.0027       0.908       0.116
  WS02006287           JUNCTION      0.00   217.39     0  02:17           0       0.906       0.080
  WSF200               JUNCTION      0.00   356.00     0  04:21           0         4.1       0.043
  HS02004901           JUNCTION     11.93    11.93     0  02:09      0.0317      0.0319       5.839
  HS02004881           JUNCTION      4.82    41.35     0  02:16      0.0138       0.146       0.100
  HS02004876           JUNCTION      7.65    36.86     0  02:17      0.0265       0.132       0.400
  HS02004870           JUNCTION      8.49    29.38     0  02:17      0.0262       0.106       0.101
  HS02004862           JUNCTION      6.94    21.46     0  02:17      0.0318      0.0798       0.212
  HS02004856           JUNCTION      6.29    14.58     0  02:17      0.0197      0.0495       2.996
  HS02004852           JUNCTION      0.00     8.69     0  02:17           0      0.0298       0.170
  HS02004848           JUNCTION     13.82    13.82     0  02:19      0.0624      0.0624       0.071
  HS02004842           JUNCTION      0.00     5.61     0  02:29           0      0.0456      39.894
  HS02004837           JUNCTION     19.93    24.68     0  02:16       0.225       0.257       0.317
  HS02004830           JUNCTION      0.15    24.82     0  02:17     0.00423       0.248       0.500
  HS02004824           JUNCTION     15.50    40.13     0  02:20      0.0817       0.328       0.165
  HS02004817           JUNCTION      0.60    40.73     0  02:20      0.0169       0.344       5.084
  HS02004807           JUNCTION     15.97    55.26     0  02:18      0.0482       0.376       1.137
  HS02004802           JUNCTION      0.00    55.58     0  02:20           0       0.372       1.104
  HS02004799           JUNCTION     12.29   138.29     0  02:15       0.039       0.471       0.485
  HS02004792           JUNCTION     54.98   126.28     0  02:14        0.17       0.433       0.096
  HS02004788           JUNCTION     18.33    73.53     0  02:15       0.101       0.264       0.149
  HS02004785           JUNCTION      0.15    55.60     0  02:15     0.00423       0.165       0.295
  HS02004777           JUNCTION      0.03    55.95     0  02:13    0.000846       0.165       3.243
  HS02004770           JUNCTION     46.61    57.20     0  02:12       0.135       0.166       1.906
  HS02004480           JUNCTION      0.00   163.02     0  02:15           0        0.55       0.132
  HS02004479           JUNCTION      0.00    25.27     0  02:18           0       0.091       0.809
  HS02004478           JUNCTION      0.00   217.39     0  02:17           0       0.906       0.069
  YS02001745           JUNCTION     76.78   141.92     0  04:25       0.836       0.893       0.967
  YS02001748           JUNCTION      0.04   225.68     0  03:52     0.00127       0.938       2.435
  YS02001751           JUNCTION      0.01   232.32     0  03:52     0.00031       0.861       2.615
  YS02001754           JUNCTION      0.26   130.60     0  03:53     0.00733       0.797       3.029
  YS02001762           JUNCTION      0.00   104.51     0  02:36           0       0.903       2.436
  YS02001765           JUNCTION      0.00   113.58     0  02:36           0       0.906       2.790
  YS02001767           JUNCTION      0.54   115.03     0  02:51      0.0151       0.927       4.012
  YS02001770           JUNCTION     99.01   118.36     0  02:54       0.977        1.01       3.252
  YS02001774           JUNCTION      0.00    44.82     0  02:14           0      0.0915      38.594
  YS02001779           JUNCTION      0.01    43.42     0  03:37    0.000141      0.0384      59.070
  YS02001882           JUNCTION      0.00     4.33     0  02:09           0     0.00534      45.807
  YS02001884           JUNCTION      0.00    12.01     0  02:06           0      0.0214      29.516
  YS02001759           JUNCTION     96.94   202.55     0  02:51       0.912        1.78       1.323
  YS02001887           JUNCTION    128.09   128.09     0  02:40        1.09         1.1       0.656
  YS02001890           JUNCTION      0.00   127.22     0  02:43           0        1.07       0.736
  YS02001898           JUNCTION      0.00   126.58     0  02:46           0        1.06       0.207
  YS02001901           JUNCTION      0.00   126.39     0  02:46           0        1.06       0.523
  YS02001904           JUNCTION      0.00   125.91     0  02:47           0        1.06       0.486
  YS02001907           JUNCTION      0.00   228.49     0  02:54           0        2.27       0.980
  YS02001910           JUNCTION      0.00   104.27     0  03:01           0        1.22       0.837
  YS02001915           JUNCTION     68.86   103.63     0  03:00       0.715        1.23       0.372
  YS02001918           JUNCTION      0.00    35.27     0  03:02           0       0.513       0.221
  YS02001619           JUNCTION     66.93    81.41     0  04:01       0.706       0.712       1.714
  YS02001629           JUNCTION      0.00   184.52     0  04:01           0       0.671       4.400
  YS02001641           JUNCTION      0.00   139.51     0  02:51           0        1.35       1.625
  YS02001644           JUNCTION     72.93   212.94     0  02:57       0.803        2.12       1.259
  YS02001652           JUNCTION      0.00   121.31     0  03:54           0       0.748       3.087
  YS02001655           JUNCTION      0.15   248.85     0  03:53     0.00434       0.811       2.960
  YS02001920           JUNCTION      2.87    35.29     0  03:02      0.0809       0.515       0.400
  YS02001923           JUNCTION      0.04    32.43     0  03:01     0.00106       0.435       0.070
  YS02001926           JUNCTION      0.05    32.45     0  03:01     0.00147       0.436       0.499
  YS02001929           JUNCTION     32.41    32.41     0  03:01       0.434       0.434       0.068
  YS02001658           JUNCTION      0.00   244.30     0  03:55           0       0.919       2.536
  YS02001661           JUNCTION      0.00   189.17     0  04:07           0        0.91       1.818
  YS02001664           JUNCTION     90.67    90.67     0  02:43       0.796       0.817       0.216
  YS02001622           JUNCTION      0.00   120.22     0  04:01           0       0.745       4.472
  YS02001633           JUNCTION     74.14   139.74     0  02:56       0.827        1.41       2.344
  YS02001649           JUNCTION      0.00   301.53     0  02:53           0        2.77       1.378
  YS02001757           JUNCTION      0.00   555.76     0  02:54           0        5.22       1.794
  YS02001895           JUNCTION      0.00   126.72     0  02:43           0        1.07       0.352
  YS02001625           JUNCTION      0.00   185.64     0  04:01           0       0.752       5.452
  YS02163301           JUNCTION      0.00    72.27     0  02:52           0       0.608       4.152
  YS02163601           JUNCTION      0.11   138.70     0  02:48      0.0031        1.37       2.270
  YS02164001           JUNCTION      0.00   138.28     0  02:53           0        1.35       1.562
  YS02001647           JUNCTION      0.00   213.71     0  02:57           0        2.08       1.361
  YSB1154              JUNCTION     13.60    13.60     0  02:14      0.0472      0.0485       3.068
  YSB6556              JUNCTION      0.00    13.56     0  02:17           0      0.0495       2.582
  YSB1174              JUNCTION     13.59    13.59     0  02:09      0.0344      0.0354       3.761
  YSB1171              JUNCTION      0.00    25.32     0  02:15           0      0.0904       7.513
  YS02006553           JUNCTION      0.00   228.57     0  02:54           0        2.26       0.635
  YS02006561           JUNCTION      0.00   335.50     0  02:51           0         3.2       0.020
  YS02006556           JUNCTION      0.00   228.65     0  02:54           0        2.27       0.459
  YS02006558           JUNCTION    108.19   335.51     0  02:51       0.991        3.23       0.140
  YS02001783           JUNCTION      0.00   335.50     0  02:51           0         3.2       0.048
  YS02001784           JUNCTION      1.06   393.65     0  02:39      0.0299        3.23       0.077
  YS02001786           JUNCTION      0.06   387.16     0  02:40     0.00159        3.23       0.076
  YS02001788           JUNCTION      0.07   413.43     0  02:41       0.002        3.23       0.043
  YS02001790           JUNCTION      0.15   390.01     0  02:40     0.00437        3.23       0.198
  YS02001791           JUNCTION      0.00   390.91     0  02:40           0        3.23       0.299
  YS02001793           JUNCTION      0.00   639.05     0  05:09           0        3.29       0.474
  WS02004139           JUNCTION      0.32   189.65     0  01:40     0.00905        1.67       0.718
  WSC                  OUTFALL       0.00   467.97     0  02:46           0        6.38       0.000
  3                    OUTFALL       0.00   250.55     0  00:00           0       0.639       0.000
  4                    OUTFALL       0.00    64.13     0  04:10           0      0.0454       0.000
  5                    OUTFALL       0.00     0.00     0  00:00           0           0       0.000 ltr
  JK-storage           STORAGE       0.00   629.92     0  05:08           0        3.42       0.478
  CC-storage           STORAGE       0.00   555.47     0  02:54           0        5.13       1.147
  XR-storage           STORAGE     324.79   324.79     0  02:50        7.04        7.64       0.010
  
  
  **********************
  Node Surcharge Summary
  **********************
  
  Surcharging occurs when water rises above the top of the highest conduit.
  ---------------------------------------------------------------------
                                               Max. Height   Min. Depth
                                   Hours       Above Crown    Below Rim
  Node                 Type      Surcharged         Meters       Meters
  ---------------------------------------------------------------------
  WS02006252           JUNCTION        0.36          0.193        0.907
  YS02001751           JUNCTION        2.99          0.227        0.973
  YS02001754           JUNCTION        4.21          0.451        0.699
  YS02001762           JUNCTION        5.16          0.711        0.439
  YS02001765           JUNCTION        5.06          0.661        0.439
  YS02001767           JUNCTION        4.92          0.651        0.379
  YS02001770           JUNCTION        4.78          0.699        0.221
  YS02001774           JUNCTION        5.13          0.828        0.222
  YS02001779           JUNCTION        4.00          0.593        0.087
  YS02001759           JUNCTION        5.22          0.747        0.463
  YS02001619           JUNCTION        2.66          0.208        0.402
  YS02001629           JUNCTION        2.66          0.195        0.275
  YS02001641           JUNCTION        5.11          0.680        0.420
  YS02001644           JUNCTION        5.12          0.690        0.230
  YS02001652           JUNCTION        4.39          0.504        0.626
  YS02001655           JUNCTION        3.11          0.553        0.647
  YS02001622           JUNCTION        2.80          0.229        0.391
  YS02001633           JUNCTION        5.02          0.639        0.421
  YS02001649           JUNCTION        5.18          0.721        0.329
  YS02001757           JUNCTION        5.36          0.851        0.359
  YS02001625           JUNCTION        4.47          0.525        0.255
  YS02163301           JUNCTION        4.84          0.602        0.428
  YS02163601           JUNCTION        5.18          0.718        0.362
  YS02164001           JUNCTION        5.06          0.659        0.441
  YS02001647           JUNCTION        4.43          0.501        0.399
  YS02001790           JUNCTION        1.88          0.417        0.740
  YS02001791           JUNCTION        1.95          0.443        1.477
  YS02001793           JUNCTION        2.34          0.788        1.812
  
  
  *********************
  Node Flooding Summary
  *********************
  
  Flooding refers to all water that overflows a node, whether it ponds or not.
  --------------------------------------------------------------------------
                                                             Total   Maximum
                                 Maximum   Time of Max       Flood    Ponded
                        Hours       Rate    Occurrence      Volume     Depth
  Node                 Flooded       LPS   days hr:min    10^6 ltr    Meters
  --------------------------------------------------------------------------
  JK-storage              1.79    391.17      0  02:40       1.449     0.000
  XR-storage              7.35    317.57      0  02:30       5.064     0.000
  
  
  **********************
  Storage Volume Summary
  **********************
  
  --------------------------------------------------------------------------------------------------
                         Average     Avg  Evap Exfil       Maximum     Max    Time of Max    Maximum
                          Volume    Pcnt  Pcnt  Pcnt        Volume    Pcnt     Occurrence    Outflow
  Storage Unit           1000 m3    Full  Loss  Loss       1000 m3    Full    days hr:min        LPS
  --------------------------------------------------------------------------------------------------
  JK-storage               0.205      70     0     0         0.291     100       0  02:38     536.57
  CC-storage               1.940      12     0     0         3.073      20       0  07:50     400.00
  XR-storage               0.916      99     0     0         0.926     100       0  00:29     189.98
  
  
  ***********************
  Outfall Loading Summary
  ***********************
  
  -----------------------------------------------------------
                         Flow       Avg       Max       Total
                         Freq      Flow      Flow      Volume
  Outfall Node           Pcnt       LPS       LPS    10^6 ltr
  -----------------------------------------------------------
  WSC                   99.99    255.92    467.97       6.377
  3                     37.10    104.19    250.55       0.639
  4                      4.89     32.91     64.13       0.045
  5                      0.00      0.00      0.00       0.000
  -----------------------------------------------------------
  System                35.50    393.02    602.84       7.061
  
  
  ********************
  Link Flow Summary
  ********************
  
  -----------------------------------------------------------------------------
                                 Maximum  Time of Max   Maximum    Max/    Max/
                                  |Flow|   Occurrence   |Veloc|    Full    Full
  Link                 Type          LPS  days hr:min     m/sec    Flow   Depth
  -----------------------------------------------------------------------------
  WS02003066WSF200     CONDUIT    356.00     0  04:21      2.56    0.06    0.18
  WS02006287WS02006284 CONDUIT    217.44     0  02:17      1.65    0.10    0.22
  WS02006284WS02006280 CONDUIT    217.54     0  02:17      1.89    0.09    0.20
  WS02006280WS02006229 CONDUIT    217.55     0  02:17      3.04    0.05    0.15
  WS02006229WS02006228 CONDUIT    366.88     0  04:12      0.83    1.22    0.95
  WS02006256WS02006235 CONDUIT    166.25     0  00:01      2.58    1.76    1.00
  WS02006253WS02006251 CONDUIT     46.94     0  02:22      0.50    0.14    0.88
  WS02006252WS02006251 CONDUIT    400.77     0  04:00      3.19    1.47    1.00
  WS02006251WS02006249 CONDUIT    402.48     0  04:09      1.18    1.16    0.85
  WS02006249WS02006248 CONDUIT    359.59     0  04:01      1.17    1.97    0.79
  WS02006248WS02006247 CONDUIT    355.89     0  04:01      1.15    0.77    0.81
  WS02006247WS02006245 CONDUIT    352.16     0  04:01      1.12    2.79    0.83
  WS02006245WS02006243 CONDUIT    347.94     0  04:01      1.17    1.03    0.82
  WS02006243WS02006242 CONDUIT    340.43     0  04:02      1.05    0.73    0.89
  WS02006242WS02006240 CONDUIT    337.37     0  04:07      0.99    1.34    0.92
  WS02006240WS02006239 CONDUIT    336.75     0  04:11      1.04    1.06    0.86
  WS02006239WS02006238 CONDUIT    336.64     0  04:11      0.94    1.08    0.92
  WS02006238WS02006235 CONDUIT    336.61     0  04:11      1.25    0.75    0.92
  WS02006235WS02006234 CONDUIT    336.51     0  04:11      0.99    3.55    0.85
  WS02006234WS02006232 CONDUIT    336.40     0  04:11      1.13    0.68    0.90
  WS02006232WS02006231 CONDUIT    336.34     0  04:12      0.97    0.70    0.85
  WS02006231WS02006230 CONDUIT    336.26     0  04:12      1.31    5.10    0.65
  WS02006230WS02006229 CONDUIT    346.53     0  04:12      0.90    7.71    1.00
  WS02006228WS02006109 CONDUIT    366.89     0  04:12      0.75    1.60    0.98
  WS02006116WS02004401 CONDUIT    362.88     0  04:15      0.73    0.50    0.70
  WS02006115WS02006116 CONDUIT    364.29     0  04:14      0.79    0.47    0.61
  WS02006113WS02006111 CONDUIT    374.95     0  04:12      2.16    0.45    0.38
  WS02006112WS02006115 CONDUIT    366.44     0  04:14      0.63    0.22    0.74
  WS02006111WS02006112 CONDUIT    368.52     0  04:13      1.32    0.18    0.64
  WS02006110WS02006113 CONDUIT    368.10     0  04:13      0.95    0.33    0.72
  WS02006109WS02006110 CONDUIT    368.11     0  04:12      0.76    0.71    0.92
  WS02004411WS02004412 CONDUIT    356.70     0  04:20      0.76    0.51    0.58
  WS02004401WS02004402 CONDUIT    361.89     0  04:15      0.77    0.43    0.73
  WS02004413WS02003067 CONDUIT    355.99     0  04:21      0.89    0.15    0.51
  WS02004412WS02004413 CONDUIT    356.19     0  04:20      0.64    0.24    0.67
  WS02004410WS02004411 CONDUIT    357.56     0  04:19      0.80    0.49    0.56
  WS02004409WS02004410 CONDUIT    358.93     0  04:18      0.84    0.46    0.54
  WS02004407WS02004409 CONDUIT    360.60     0  04:17      1.32    0.13    0.39
  WS02004406WS02004407 CONDUIT    360.65     0  04:17      0.82    0.16    0.55
  WS02004405WS02004406 CONDUIT    360.73     0  04:17      0.66    0.71    0.85
  WS02004404WS02004405 CONDUIT    360.84     0  04:16      0.84    3.54    0.84
  WS02004403WS02004404 CONDUIT    360.83     0  04:16      0.74    0.26    0.81
  WS02004402WS02004403 CONDUIT    361.24     0  04:16      0.75    0.52    0.76
  WS02004139WS02001211 CONDUIT    182.45     0  01:40      0.40    0.23    0.43
  WS02004138WS02004139 CONDUIT    189.33     0  01:40      1.02    0.04    0.31
  WS02003067WS02003066 CONDUIT    356.01     0  04:21      0.96    0.11    0.36
  WS02001213WS02003059 CONDUIT    180.01     0  01:42      0.45    0.30    0.58
  WS02001212WS02001213 CONDUIT    182.54     0  01:42      1.00    0.28    0.28
  WS02001211WS02001212 CONDUIT    184.01     0  01:41      0.52    0.14    0.46
  WS02003072WS02003073 CONDUIT    467.08     0  02:45      1.35    1.01    0.34
  WS02003069WS02003072 CONDUIT    467.61     0  02:44      1.30    0.23    0.36
  WS02003060WS02003069 CONDUIT    467.65     0  02:44      1.58    0.18    0.31
  WS02003059WS02003060 CONDUIT    179.09     0  03:03      0.64    0.12    0.49
  HS02004901HS02004770 CONDUIT     10.98     0  02:14      0.05    0.04    0.33
  HS02004876HS02004881 CONDUIT     36.94     0  02:17      0.59    0.39    0.09
  HS02004870HS02004876 CONDUIT     29.35     0  02:17      0.41    0.02    0.10
  HS02004842HS02004848 CONDUIT      5.61     0  02:29      0.03    0.00    0.28
  HS02004837HS02004842 CONDUIT      5.81     0  02:30      0.41    0.00    0.29
  HS02004830HS02004837 CONDUIT     24.67     0  02:17      0.45    0.02    0.08
  HS02004824HS02004830 CONDUIT     24.81     0  02:17      0.49    0.03    0.07
  HS02004817HS02004824 CONDUIT     40.13     0  02:20      0.17    0.02    0.40
  HS02004770HS02004777 CONDUIT     55.92     0  02:13      0.24    0.10    0.34
  HS02004799HS02004480 CONDUIT    138.09     0  02:15      0.61    0.17    0.32
  HS02004792HS02004799 CONDUIT    126.20     0  02:15      0.70    0.08    0.26
  HS02004788HS02004792 CONDUIT     73.46     0  02:16      0.85    0.05    0.12
  HS02004785HS02004788 CONDUIT     55.50     0  02:16      0.53    0.42    0.15
  HS02004777HS02004785 CONDUIT     55.45     0  02:15      0.29    0.07    0.28
  HS02004480HS02004478 CONDUIT    162.95     0  02:16      0.99    0.69    0.24
  HS02004479HS02004480 CONDUIT     25.53     0  02:18      0.16    0.02    0.31
  HS02004862HS02004870 CONDUIT     21.42     0  02:18      0.48    0.02    0.06
  HS02004848HS02004852 CONDUIT      8.69     0  02:17      0.32    0.01    0.04
  HS02004856HS02004862 CONDUIT     14.54     0  02:17      0.35    0.01    0.06
  HS02004852HS02004856 CONDUIT      8.65     0  02:19      0.13    0.01    0.09
  HS02004802HS02004478 CONDUIT     56.01     0  02:21      0.31    0.05    0.26
  HS02004478WS02006287 CONDUIT    217.39     0  02:17      1.35    0.06    0.18
  HS02004817HS02004807 CONDUIT     41.33     0  02:22      0.11    0.02    0.52
  HS02004807HS02004802 CONDUIT     55.58     0  02:20      0.26    0.11    0.31
  YS02001759YS02001757 CONDUIT    203.30     0  02:51      0.26    0.14    1.00
  YS02001762YS02001759 CONDUIT    105.96     0  02:51      0.18    0.12    1.00
  YS02001765YS02001762 CONDUIT    104.51     0  02:36      0.23    0.10    1.00
  YS02001770YS02001767 CONDUIT    114.49     0  02:51      0.31    0.45    1.00
  YS02001774YS02001770 CONDUIT     44.82     0  02:14      0.14    0.03    1.00
  YS02001779YS02001774 CONDUIT     43.42     0  03:37      0.07    0.02    1.00
  YS02001649YS02001757 CONDUIT    303.41     0  02:53      0.39    0.18    1.00
  YS02001767YS02001765 CONDUIT    113.58     0  02:36      0.26    0.14    1.00
  YS02006561YS02001783 CONDUIT    335.50     0  02:51      1.80    0.17    0.55
  YS02001783YS02001784 CONDUIT    392.59     0  02:39      1.24    0.54    0.83
  YS02001784YS02001785 CONDUIT    387.11     0  02:40      1.32    0.90    0.90
  YS02001788YS02001790 CONDUIT    389.86     0  02:40      1.87    0.29    0.97
  YS02001790YS02001791 CONDUIT    390.91     0  02:40      2.20    0.43    1.00
  YS02001791YS02001793 CONDUIT    415.07     0  02:33      4.30    0.18    1.00
  YS02001910YS02001907 CONDUIT    104.50     0  03:01      0.49    0.06    0.75
  YS02001786YS02001788 CONDUIT    413.35     0  02:41      1.77    0.80    0.91
  YS02001915YS02001910 CONDUIT    104.27     0  03:01      0.45    0.05    0.54
  YS02001918YS02001915 CONDUIT     35.26     0  03:03      0.44    0.02    0.27
  YS02001923YS02001920 CONDUIT     32.42     0  03:02      0.46    0.01    0.14
  YS02001926YS02001923 CONDUIT     32.39     0  03:01      0.50    0.05    0.14
  YS02001929YS02001926 CONDUIT     32.40     0  03:01      0.53    0.02    0.13
  YS02001920YS02001918 CONDUIT     35.27     0  03:02      0.47    0.03    0.15
  YS02001629YS02163301 CONDUIT     72.27     0  02:52      0.11    0.09    1.00
  YS02001619YS02001622 CONDUIT    120.22     0  04:01      0.66    0.18    1.00
  YS02001622YS02001625 CONDUIT    185.64     0  04:01      0.26    0.10    1.00
  YS02001625YS02001629 CONDUIT    184.52     0  04:01      0.26    0.09    1.00
  YS02163301YS02001633 CONDUIT     70.04     0  03:57      0.10    0.07    1.00
  YS02163601YS02164001 CONDUIT    138.28     0  02:53      0.18    0.12    1.00
  YS02164001YS02001641 CONDUIT    139.51     0  02:51      0.18    0.19    1.00
  YS02001641YS02001644 CONDUIT    140.03     0  02:57      0.18    0.45    1.00
  YS02001647YS02001649 CONDUIT    219.83     0  03:10      0.28    0.12    1.00
  YS02006553YS02006556 CONDUIT    228.65     0  02:54      0.33    0.20    0.84
  YS02006556YS02006558 CONDUIT    228.68     0  02:55      0.32    0.18    0.86
  YSB6556YSB1171       CONDUIT     13.82     0  02:18      0.06    0.01    0.58
  YS02001907YS02006553 CONDUIT    228.57     0  02:54      0.27    0.27    0.95
  YS02006558YS02006561 CONDUIT    335.50     0  02:51      2.32    0.74    0.51
  YS02001633YS02163601 CONDUIT    138.59     0  02:48      0.18    0.15    1.00
  YS02001644YS02001647 CONDUIT    213.71     0  02:57      0.28    0.13    1.00
  YS02001745YS02001748 CONDUIT    206.99     0  04:11      1.42    0.08    0.77
  YS02001748YS02001751 CONDUIT    232.31     0  03:52      1.10    0.12    1.00
  YS02001751YS02001754 CONDUIT    130.34     0  03:53      0.98    0.06    1.00
  YS02001754YS02001757 CONDUIT    128.74     0  03:53      0.33    0.05    1.00
  YS02001882YS02001884 CONDUIT      4.33     0  02:09      0.06    0.00    0.48
  YS02001884YS02001887 CONDUIT     12.01     0  02:06      0.06    0.02    0.57
  YS02001890YS02001895 CONDUIT    126.72     0  02:43      0.29    0.06    0.54
  YS02001895YS02001898 CONDUIT    126.58     0  02:46      0.49    0.22    0.41
  YS02001898YS02001901 CONDUIT    126.39     0  02:46      0.34    0.08    0.49
  YS02001901YS02001904 CONDUIT    125.91     0  02:47      0.29    0.20    0.54
  YS02001904YS02001907 CONDUIT    126.00     0  02:48      0.22    0.04    0.70
  YS02001887YS02001890 CONDUIT    127.22     0  02:43      0.25    0.22    0.63
  YS02001652YS02001649 CONDUIT    121.81     0  03:54      0.33    0.06    1.00
  YS02001655YS02001652 CONDUIT    121.31     0  03:54      1.05    0.06    1.00
  YS02001658YS02001655 CONDUIT    238.74     0  03:55      1.27    0.10    0.98
  YS02001661YS02001658 CONDUIT    212.30     0  04:15      1.47    0.08    0.80
  YS02001664YS02001661 CONDUIT     90.67     0  02:43      1.14    0.03    0.44
  YSB1154YSB6556       CONDUIT     13.56     0  02:17      0.19    0.02    0.47
  YSB1174YSB1171       CONDUIT     12.63     0  02:10      0.06    0.02    0.59
  YSB1171HS02004479    CONDUIT     25.27     0  02:18      0.54    0.02    0.46
  HS02004881HS02006253 CONDUIT     41.34     0  02:17      1.70    0.01    0.21
  YS02001793JiankangQianchi CONDUIT    629.92     0  05:08      2.56    0.05    1.00
  YS02001757CaochengTiaoxuchi CONDUIT    555.47     0  02:54      1.08    0.24    1.00
  WSF200WS02003060     CONDUIT    356.20     0  04:21      1.85    0.08    0.24
  1                    CONDUIT    467.97     0  02:46      2.69    0.16    0.27
  2                    CONDUIT     64.13     0  04:10      4.27    0.15    0.27
  3                    CONDUIT    250.55     0  00:00      8.26    0.40    0.46
  4                    CONDUIT      0.00     0  00:00      0.00    0.00    0.00
  CC-Pump-1            PUMP       200.00     0  04:00              1.00
  CC-Pump-2            PUMP       200.00     0  03:30              1.00
  JK-Pump-1            PUMP       299.99     0  05:20              1.00
  JK-Pump-2            PUMP       300.00     0  00:00              1.00
  XR-Pump-1            PUMP        95.00     0  01:20              1.00
  XR-Pump-2            PUMP        94.98     0  03:30              1.00
  XR-Pump-3            PUMP        94.98     0  02:40              1.00
  XR-Pump-4            PUMP        95.00     0  05:20              1.00
  
  
  ***************************
  Flow Classification Summary
  ***************************
  
  -------------------------------------------------------------------------------------
                      Adjusted    ---------- Fraction of Time in Flow Class ---------- 
                       /Actual         Up    Down  Sub   Sup   Up    Down  Norm  Inlet 
  Conduit               Length    Dry  Dry   Dry   Crit  Crit  Crit  Crit  Ltd   Ctrl  
  -------------------------------------------------------------------------------------
  WS02003066WSF200        1.00   0.09  0.00  0.00  0.00  0.91  0.00  0.00  0.76  0.00
  WS02006287WS02006284    1.00   0.06  0.02  0.00  0.70  0.21  0.00  0.00  0.77  0.00
  WS02006284WS02006280    1.00   0.07  0.00  0.00  0.00  0.00  0.00  0.93  0.00  0.00
  WS02006280WS02006229    1.00   0.07  0.00  0.00  0.00  0.00  0.00  0.93  0.00  0.00
  WS02006229WS02006228    1.00   0.00  0.00  0.00  0.98  0.00  0.00  0.02  0.00  0.00
  WS02006256WS02006235    1.00   0.00  0.00  0.00  0.99  0.01  0.00  0.00  0.00  0.00
  WS02006253WS02006251    1.00   0.04  0.02  0.00  0.93  0.00  0.00  0.00  0.00  0.00
  WS02006252WS02006251    1.00   0.12  0.00  0.00  0.00  0.00  0.88  0.00  0.00  0.00
  WS02006251WS02006249    1.00   0.00  0.00  0.00  1.00  0.00  0.00  0.00  0.49  0.00
  WS02006249WS02006248    1.00   0.00  0.03  0.00  0.67  0.00  0.30  0.00  0.00  0.00
  WS02006248WS02006247    1.00   0.04  0.00  0.00  0.96  0.00  0.00  0.00  0.41  0.00
  WS02006247WS02006245    1.00   0.03  0.00  0.00  0.95  0.00  0.00  0.02  0.00  0.00
  WS02006245WS02006243    1.00   0.02  0.01  0.00  0.87  0.00  0.00  0.10  0.03  0.00
  WS02006243WS02006242    1.00   0.01  0.01  0.00  0.98  0.00  0.00  0.00  0.44  0.00
  WS02006242WS02006240    1.00   0.01  0.00  0.00  0.99  0.00  0.01  0.00  0.00  0.00
  WS02006240WS02006239    1.00   0.00  0.00  0.00  0.90  0.00  0.00  0.10  0.03  0.00
  WS02006239WS02006238    1.00   0.00  0.00  0.00  1.00  0.00  0.00  0.00  0.15  0.00
  WS02006238WS02006235    1.00   0.00  0.00  0.00  1.00  0.00  0.00  0.00  0.00  0.00
  WS02006235WS02006234    1.00   0.00  0.00  0.00  0.92  0.00  0.08  0.00  0.00  0.00
  WS02006234WS02006232    1.00   0.00  0.00  0.00  1.00  0.00  0.00  0.00  0.10  0.00
  WS02006232WS02006231    1.00   0.00  0.00  0.00  0.99  0.00  0.01  0.00  0.00  0.00
  WS02006231WS02006230    1.00   0.00  0.00  0.00  0.14  0.00  0.85  0.00  0.00  0.00
  WS02006230WS02006229    1.00   0.00  0.00  0.00  0.98  0.00  0.00  0.02  0.01  0.00
  WS02006228WS02006109    1.00   0.00  0.00  0.00  0.99  0.00  0.00  0.00  0.00  0.00
  WS02006116WS02004401    1.00   0.04  0.00  0.00  0.96  0.00  0.00  0.00  0.00  0.00
  WS02006115WS02006116    1.00   0.04  0.00  0.00  0.95  0.00  0.00  0.01  0.00  0.00
  WS02006113WS02006111    1.00   0.03  0.00  0.00  0.00  0.97  0.00  0.00  0.20  0.00
  WS02006112WS02006115    1.00   0.03  0.00  0.00  0.96  0.00  0.00  0.00  0.00  0.00
  WS02006111WS02006112    1.00   0.03  0.00  0.00  0.96  0.00  0.00  0.00  0.98  0.00
  WS02006110WS02006113    1.00   0.02  0.01  0.00  0.97  0.00  0.00  0.00  0.00  0.00
  WS02006109WS02006110    1.00   0.00  0.02  0.00  0.97  0.00  0.01  0.00  0.00  0.00
  WS02004411WS02004412    1.00   0.06  0.00  0.00  0.94  0.00  0.00  0.00  0.00  0.00
  WS02004401WS02004402    1.00   0.04  0.00  0.00  0.96  0.00  0.00  0.00  0.00  0.00
  WS02004413WS02003067    1.00   0.06  0.02  0.00  0.00  0.00  0.92  0.00  0.00  0.00
  WS02004412WS02004413    1.00   0.06  0.00  0.00  0.94  0.00  0.00  0.00  0.04  0.00
  WS02004410WS02004411    1.00   0.06  0.00  0.00  0.94  0.00  0.00  0.00  0.04  0.00
  WS02004409WS02004410    1.00   0.06  0.00  0.00  0.94  0.00  0.00  0.00  0.04  0.00
  WS02004407WS02004409    1.00   0.06  0.00  0.00  0.94  0.00  0.00  0.00  0.89  0.00
  WS02004406WS02004407    1.00   0.00  0.06  0.00  0.94  0.00  0.00  0.00  0.00  0.00
  WS02004405WS02004406    1.00   0.00  0.00  0.00  1.00  0.00  0.00  0.00  0.00  0.00
  WS02004404WS02004405    1.00   0.00  0.00  0.00  1.00  0.00  0.00  0.00  0.00  0.00
  WS02004403WS02004404    1.00   0.00  0.04  0.00  0.96  0.00  0.00  0.00  0.01  0.00
  WS02004402WS02004403    1.00   0.04  0.00  0.00  0.96  0.00  0.00  0.00  0.00  0.00
  WS02004139WS02001211    1.00   0.00  0.01  0.00  0.99  0.00  0.00  0.00  0.00  0.00
  WS02004138WS02004139    1.00   0.03  0.02  0.00  0.95  0.00  0.00  0.00  0.96  0.00
  WS02003067WS02003066    1.00   0.08  0.01  0.00  0.91  0.00  0.00  0.00  0.00  0.00
  WS02001213WS02003059    1.00   0.00  0.01  0.00  0.99  0.00  0.00  0.00  0.00  0.00
  WS02001212WS02001213    1.00   0.04  0.00  0.00  0.46  0.00  0.50  0.00  0.00  0.00
  WS02001211WS02001212    1.00   0.00  0.04  0.00  0.96  0.00  0.00  0.00  0.00  0.00
  WS02003072WS02003073    1.00   0.00  0.00  0.00  0.00  0.00  0.00  1.00  0.00  0.00
  WS02003069WS02003072    1.00   0.00  0.00  0.00  0.99  0.01  0.00  0.00  0.85  0.00
  WS02003060WS02003069    1.00   0.00  0.00  0.00  0.98  0.02  0.00  0.00  0.52  0.00
  WS02003059WS02003060    1.00   0.00  0.00  0.00  0.99  0.01  0.00  0.00  0.06  0.00
  HS02004901HS02004770    1.00   0.07  0.00  0.00  0.93  0.00  0.00  0.00  0.02  0.00
  HS02004876HS02004881    1.00   0.03  0.00  0.00  0.97  0.00  0.00  0.00  0.00  0.00
  HS02004870HS02004876    1.00   0.01  0.00  0.00  0.99  0.00  0.00  0.00  0.95  0.00
  HS02004842HS02004848    1.00   0.00  0.07  0.00  0.93  0.00  0.00  0.00  0.69  0.00
  HS02004837HS02004842    1.00   0.00  0.00  0.00  0.99  0.01  0.00  0.00  0.11  0.00
  HS02004830HS02004837    1.00   0.00  0.00  0.00  1.00  0.00  0.00  0.00  0.99  0.00
  HS02004824HS02004830    1.00   0.00  0.00  0.00  1.00  0.00  0.00  0.00  0.00  0.00
  HS02004817HS02004824    1.00   0.00  0.00  0.00  1.00  0.00  0.00  0.00  1.00  0.00
  HS02004770HS02004777    1.00   0.00  0.07  0.00  0.93  0.00  0.00  0.00  0.07  0.00
  HS02004799HS02004480    1.00   0.00  0.04  0.00  0.92  0.00  0.04  0.00  0.00  0.00
  HS02004792HS02004799    1.00   0.00  0.00  0.00  0.98  0.02  0.00  0.00  0.98  0.00
  HS02004788HS02004792    1.00   0.00  0.00  0.00  0.98  0.02  0.00  0.00  0.98  0.00
  HS02004785HS02004788    1.00   0.00  0.00  0.00  1.00  0.00  0.00  0.00  0.00  0.00
  HS02004777HS02004785    1.00   0.00  0.00  0.00  1.00  0.00  0.00  0.00  0.20  0.00
  HS02004480HS02004478    1.00   0.07  0.00  0.00  0.76  0.00  0.00  0.17  0.00  0.00
  HS02004479HS02004480    1.00   0.04  0.00  0.00  0.96  0.00  0.00  0.00  0.16  0.00
  HS02004862HS02004870    1.00   0.00  0.00  0.00  1.00  0.00  0.00  0.00  0.06  0.00
  HS02004848HS02004852    1.00   0.07  0.00  0.00  0.93  0.00  0.00  0.00  0.71  0.00
  HS02004856HS02004862    1.00   0.00  0.10  0.00  0.90  0.00  0.00  0.00  0.74  0.00
  HS02004852HS02004856    1.00   0.07  0.01  0.00  0.92  0.00  0.00  0.00  0.83  0.00
  HS02004802HS02004478    1.00   0.07  0.01  0.00  0.93  0.00  0.00  0.00  0.01  0.00
  HS02004478WS02006287    1.00   0.08  0.00  0.00  0.86  0.06  0.00  0.00  0.77  0.00
  HS02004817HS02004807    1.00   0.00  0.07  0.00  0.93  0.00  0.00  0.00  0.00  0.00
  HS02004807HS02004802    1.00   0.07  0.00  0.00  0.93  0.00  0.00  0.00  0.01  0.00
  YS02001759YS02001757    1.00   0.00  0.00  0.00  1.00  0.00  0.00  0.00  0.17  0.00
  YS02001762YS02001759    1.00   0.00  0.00  0.00  1.00  0.00  0.00  0.00  0.04  0.00
  YS02001765YS02001762    1.00   0.00  0.00  0.00  1.00  0.00  0.00  0.00  0.22  0.00
  YS02001770YS02001767    1.00   0.00  0.00  0.00  1.00  0.00  0.00  0.00  0.00  0.00
  YS02001774YS02001770    1.00   0.00  0.07  0.00  0.92  0.00  0.00  0.00  0.07  0.00
  YS02001779YS02001774    1.00   0.00  0.00  0.00  1.00  0.00  0.00  0.00  0.26  0.00
  YS02001649YS02001757    1.00   0.00  0.00  0.00  1.00  0.00  0.00  0.00  0.19  0.00
  YS02001767YS02001765    1.00   0.00  0.00  0.00  1.00  0.00  0.00  0.00  0.01  0.00
  YS02006561YS02001783    1.00   0.10  0.00  0.00  0.31  0.59  0.00  0.00  0.73  0.00
  YS02001783YS02001784    1.00   0.00  0.10  0.00  0.90  0.00  0.00  0.00  0.00  0.00
  YS02001784YS02001785    1.00   0.00  0.00  0.00  1.00  0.00  0.00  0.00  0.25  0.00
  YS02001788YS02001790    1.00   0.00  0.00  0.00  0.46  0.54  0.00  0.00  0.69  0.00
  YS02001790YS02001791    1.00   0.00  0.00  0.00  0.43  0.57  0.00  0.00  0.31  0.00
  YS02001791YS02001793    1.00   0.00  0.00  0.00  0.55  0.45  0.00  0.00  0.13  0.00
  YS02001910YS02001907    1.00   0.00  0.00  0.00  0.96  0.00  0.00  0.04  0.13  0.00
  YS02001786YS02001788    1.00   0.00  0.00  0.00  0.43  0.57  0.00  0.00  0.00  0.00
  YS02001915YS02001910    1.00   0.00  0.00  0.00  0.98  0.02  0.00  0.00  0.24  0.00
  YS02001918YS02001915    1.00   0.00  0.01  0.00  0.97  0.02  0.00  0.00  0.82  0.00
  YS02001923YS02001920    1.00   0.00  0.00  0.00  1.00  0.00  0.00  0.00  1.00  0.00
  YS02001926YS02001923    1.00   0.00  0.05  0.00  0.00  0.00  0.95  0.00  0.00  0.00
  YS02001929YS02001926    1.00   0.00  0.07  0.00  0.93  0.00  0.00  0.00  0.87  0.00
  YS02001920YS02001918    1.00   0.00  0.01  0.00  0.99  0.00  0.00  0.00  0.00  0.00
  YS02001629YS02163301    1.00   0.09  0.01  0.00  0.91  0.00  0.00  0.00  0.00  0.00
  YS02001619YS02001622    1.00   0.07  0.00  0.00  0.93  0.00  0.00  0.00  0.00  0.00
  YS02001622YS02001625    1.00   0.07  0.00  0.00  0.93  0.00  0.00  0.00  0.13  0.00
  YS02001625YS02001629    1.00   0.07  0.04  0.00  0.88  0.00  0.02  0.00  0.00  0.00
  YS02163301YS02001633    1.00   0.00  0.09  0.00  0.91  0.00  0.00  0.00  0.00  0.00
  YS02163601YS02164001    1.00   0.00  0.05  0.00  0.95  0.00  0.00  0.00  0.00  0.00
  YS02164001YS02001641    1.00   0.01  0.04  0.00  0.95  0.00  0.00  0.00  0.07  0.00
  YS02001641YS02001644    1.00   0.00  0.01  0.00  0.99  0.00  0.00  0.00  0.00  0.00
  YS02001647YS02001649    1.00   0.00  0.10  0.00  0.90  0.00  0.00  0.00  0.01  0.00
  YS02006553YS02006556    1.00   0.02  0.00  0.00  0.98  0.00  0.00  0.00  0.03  0.00
  YS02006556YS02006558    1.00   0.00  0.00  0.00  1.00  0.00  0.00  0.00  0.00  0.00
  YSB6556YSB1171          1.00   0.04  0.02  0.00  0.94  0.00  0.00  0.00  0.00  0.00
  YS02001907YS02006553    1.00   0.00  0.03  0.00  0.96  0.00  0.00  0.00  0.00  0.00
  YS02006558YS02006561    1.00   0.10  0.00  0.00  0.00  0.90  0.00  0.00  0.73  0.00
  YS02001633YS02163601    1.00   0.00  0.01  0.00  0.99  0.00  0.00  0.00  0.19  0.00
  YS02001644YS02001647    1.00   0.00  0.10  0.00  0.90  0.00  0.00  0.00  0.00  0.00
  YS02001745YS02001748    1.00   0.00  0.00  0.00  0.84  0.01  0.00  0.16  0.13  0.00
  YS02001748YS02001751    1.00   0.00  0.00  0.00  0.97  0.03  0.00  0.00  0.24  0.00
  YS02001751YS02001754    1.00   0.00  0.00  0.00  0.89  0.00  0.00  0.11  0.02  0.00
  YS02001754YS02001757    1.00   0.00  0.00  0.00  0.99  0.01  0.00  0.00  0.26  0.00
  YS02001882YS02001884    1.00   0.08  0.01  0.00  0.91  0.00  0.00  0.00  0.00  0.00
  YS02001884YS02001887    1.00   0.05  0.01  0.00  0.94  0.00  0.00  0.00  0.00  0.00
  YS02001890YS02001895    1.00   0.00  0.09  0.00  0.91  0.00  0.00  0.00  0.00  0.00
  YS02001895YS02001898    1.00   0.09  0.00  0.00  0.90  0.00  0.01  0.00  0.00  0.00
  YS02001898YS02001901    1.00   0.09  0.01  0.00  0.91  0.00  0.00  0.00  0.02  0.00
  YS02001901YS02001904    1.00   0.09  0.00  0.00  0.91  0.00  0.00  0.00  0.00  0.00
  YS02001904YS02001907    1.00   0.00  0.08  0.00  0.91  0.00  0.00  0.00  0.00  0.00
  YS02001887YS02001890    1.00   0.00  0.00  0.00  0.96  0.00  0.04  0.00  0.00  0.00
  YS02001652YS02001649    1.00   0.00  0.00  0.00  1.00  0.00  0.00  0.00  0.25  0.00
  YS02001655YS02001652    1.00   0.00  0.00  0.00  0.89  0.00  0.00  0.11  0.02  0.00
  YS02001658YS02001655    1.00   0.00  0.08  0.00  0.89  0.03  0.00  0.00  0.11  0.00
  YS02001661YS02001658    1.00   0.08  0.00  0.00  0.84  0.08  0.00  0.00  0.17  0.00
  YS02001664YS02001661    1.00   0.07  0.00  0.00  0.79  0.14  0.00  0.00  0.62  0.00
  YSB1154YSB6556          1.00   0.06  0.00  0.00  0.94  0.00  0.00  0.00  0.02  0.00
  YSB1174YSB1171          1.00   0.04  0.01  0.00  0.94  0.00  0.00  0.00  0.00  0.00
  YSB1171HS02004479       1.00   0.04  0.00  0.00  0.95  0.00  0.00  0.00  0.13  0.00
  HS02004881HS02006253    1.00   0.05  0.00  0.00  0.42  0.04  0.00  0.50  0.26  0.00
  YS02001793JiankangQianchi    1.00   0.00  0.00  0.00  0.93  0.06  0.00  0.00  0.38  0.00
  YS02001757CaochengTiaoxuchi    1.00   0.00  0.12  0.00  0.88  0.00  0.00  0.00  0.00  0.00
  WSF200WS02003060        1.00   0.00  0.09  0.00  0.24  0.67  0.00  0.00  0.34  0.00
  1                       1.00   0.00  0.00  0.00  0.00  1.00  0.00  0.00  0.31  0.00
  2                       1.00   0.95  0.00  0.00  0.00  0.05  0.00  0.00  0.01  0.00
  3                       1.00   0.63  0.00  0.00  0.00  0.37  0.00  0.00  0.44  0.00
  4                       1.00   1.00  0.00  0.00  0.00  0.00  0.00  0.00  0.00  0.00
  
  
  *************************
  Conduit Surcharge Summary
  *************************
  
  ----------------------------------------------------------------------------
                                                           Hours        Hours 
                         --------- Hours Full --------   Above Full   Capacity
  Conduit                Both Ends  Upstream  Dnstream   Normal Flow   Limited
  ----------------------------------------------------------------------------
  WS02006229WS02006228        0.01      0.01      0.01      1.04         0.01
  WS02006256WS02006235        4.09      4.09      6.48      1.91         0.01
  WS02006252WS02006251        0.24      0.24      0.36      0.33         0.01
  WS02006251WS02006249        0.01      0.01      0.01      0.23         0.01
  WS02006249WS02006248        0.01      0.01      0.01      1.50         0.01
  WS02006247WS02006245        0.01      0.01      0.01      2.25         0.01
  WS02006245WS02006243        0.01      0.01      0.01      0.13         0.01
  WS02006242WS02006240        0.01      0.01      0.01      0.36         0.01
  WS02006240WS02006239        0.01      0.01      0.01      0.23         0.01
  WS02006239WS02006238        0.01      0.01      0.01      0.24         0.01
  WS02006235WS02006234        0.01      0.01      0.01      3.97         0.01
  WS02006231WS02006230        0.01      0.01      0.01      4.43         0.01
  WS02006230WS02006229        0.17      0.68      0.17      4.94         0.17
  WS02006228WS02006109        0.01      0.01      0.01      1.95         0.01
  WS02006111WS02006112        0.01      0.01      1.15      0.01         0.01
  WS02004404WS02004405        0.01      0.01      0.01      5.08         0.01
  WS02003072WS02003073        0.01      0.01      0.01      0.03         0.01
  YS02001759YS02001757        5.22      5.22      5.36      0.01         0.01
  YS02001762YS02001759        5.16      5.16      5.22      0.01         0.01
  YS02001765YS02001762        5.06      5.06      5.16      0.01         0.01
  YS02001770YS02001767        4.91      4.91      4.92      0.01         0.37
  YS02001774YS02001770        4.78      4.78      5.13      0.01         0.01
  YS02001779YS02001774        4.01      4.01      5.13      0.01         0.01
  YS02001649YS02001757        5.18      5.18      5.36      0.01         0.01
  YS02001767YS02001765        4.92      4.92      5.06      0.01         0.01
  YS02001788YS02001790        0.01      0.01      1.88      0.01         0.01
  YS02001790YS02001791        1.88      1.88      1.95      0.01         0.01
  YS02001791YS02001793        1.95      1.95      2.70      0.01         0.01
  YS02001629YS02163301        4.70      4.70      4.84      0.01         0.01
  YS02001619YS02001622        2.66      2.66      2.80      0.01         0.01
  YS02001622YS02001625        2.80      2.80      4.47      0.01         0.01
  YS02001625YS02001629        2.66      2.66      4.47      0.01         0.01
  YS02163301YS02001633        4.84      4.84      5.08      0.01         0.01
  YS02163601YS02164001        5.06      5.06      5.18      0.01         0.01
  YS02164001YS02001641        5.06      5.06      5.11      0.01         0.01
  YS02001641YS02001644        5.11      5.11      5.12      0.01         0.33
  YS02001647YS02001649        4.43      4.43      5.18      0.01         0.01
  YS02001633YS02163601        5.02      5.02      5.18      0.01         0.01
  YS02001644YS02001647        4.43      4.43      5.12      0.01         0.01
  YS02001748YS02001751        0.21      0.21      2.99      0.01         0.01
  YS02001751YS02001754        2.99      2.99      4.21      0.01         0.01
  YS02001754YS02001757        4.44      4.44      5.36      0.01         0.01
  YS02001652YS02001649        4.48      4.48      5.18      0.01         0.01
  YS02001655YS02001652        3.11      3.11      4.39      0.01         0.01
  YS02001658YS02001655        0.01      0.01      3.11      0.01         0.01
  YS02001793JiankangQianchi        2.33      2.33      5.63      0.01         0.01
  YS02001757CaochengTiaoxuchi        1.55      1.55      5.36      0.01         0.01
  
  
  ***************
  Pumping Summary
  ***************
  
  ---------------------------------------------------------------------------------------------------------
                                                  Min       Avg       Max     Total     Power    % Time Off
                        Percent   Number of      Flow      Flow      Flow    Volume     Usage    Pump Curve
  Pump                 Utilized   Start-Ups       LPS       LPS       LPS  10^6 ltr     Kw-hr    Low   High
  ---------------------------------------------------------------------------------------------------------
  CC-Pump-1               14.89           3      0.00    108.54    200.00     0.480      1.04    0.0    0.0
  CC-Pump-2               43.34           5      0.00    134.33    200.00     1.514      3.38    0.0    6.7
  JK-Pump-1               17.02           4      0.00    153.13    299.99     0.546      5.19    0.0    0.0
  JK-Pump-2               27.68           4      0.00    185.50    300.00     1.081      8.46    0.0    0.0
  XR-Pump-1               57.43          10      0.00     57.11     95.00     0.969      4.30    0.0    0.0
  XR-Pump-2                8.50           2      0.00     50.23     94.98     0.114      0.51    0.0    0.0
  XR-Pump-3               17.03           4      0.00     47.81     94.98     0.228      1.02    0.0    0.0
  XR-Pump-4               25.51           5      0.00     48.86     95.00     0.342      1.53    0.0    0.0
  

  Analysis begun on:  Wed Jan  5 21:55:06 2022
  Analysis ended on:  Wed Jan  5 21:55:07 2022
  Total elapsed time: 00:00:01