
  EPA STORM WATER MANAGEMENT MODEL - VERSION 5.1 (Build 5.3.0.dev0)
  --------------------------------------------------------------

  WARNING 04: minimum elevation drop used for Conduit WS02004404WS02004405
  WARNING 03: negative offset ignored for Link YS02001904YS02001907
  
  *********************************************************
  NOTE: The summary statistics displayed in this report are
  based on results found at every computational time step,  
  not just on results from each reporting time step.
  *********************************************************
  
  ****************
  Analysis Options
  ****************
  Flow Units ............... LPS
  Process Models:
    Rainfall/Runoff ........ YES
    RDII ................... NO
    Snowmelt ............... NO
    Groundwater ............ NO
    Flow Routing ........... YES
    Ponding Allowed ........ NO
    Water Quality .......... NO
  Infiltration Method ...... HORTON
  Flow Routing Method ...... DYNWAVE
  Surcharge Method ......... EXTRAN
  Starting Date ............ 08/28/2015 08:00:00
  Ending Date .............. 08/28/2015 15:50:00
  Antecedent Dry Days ...... 8.0
  Report Time Step ......... 00:01:00
  Wet Time Step ............ 00:01:00
  Dry Time Step ............ 00:01:00
  Routing Time Step ........ 5.00 sec
  Variable Time Step ....... YES
  Maximum Trials ........... 8
  Number of Threads ........ 4
  Head Tolerance ........... 0.001500 m
  
  
  **************************        Volume         Depth
  Runoff Quantity Continuity     hectare-m            mm
  **************************     ---------       -------
  Total Precipitation ......         2.141         4.687
  Evaporation Loss .........         0.000         0.000
  Infiltration Loss ........         0.532         1.164
  Surface Runoff ...........         0.782         1.712
  Final Storage ............         0.828         1.812
  Continuity Error (%) .....        -0.018
  
  
  **************************        Volume        Volume
  Flow Routing Continuity        hectare-m      10^6 ltr
  **************************     ---------     ---------
  Dry Weather Inflow .......         0.616         6.165
  Wet Weather Inflow .......         0.781         7.813
  Groundwater Inflow .......         0.000         0.000
  RDII Inflow ..............         0.000         0.000
  External Inflow ..........         0.102         1.024
  External Outflow .........         0.626         6.262
  Flooding Loss ............         0.489         4.889
  Evaporation Loss .........         0.000         0.000
  Exfiltration Loss ........         0.000         0.000
  Initial Stored Volume ....         0.076         0.761
  Final Stored Volume ......         0.467         4.667
  Continuity Error (%) .....        -0.353
  
  
  *************************
  Highest Continuity Errors
  *************************
  Node HS02004842 (33.88%)
  Node YS02001884 (28.07%)
  Node YS02001774 (18.02%)
  Node YSB1171 (9.19%)
  Node YS02001625 (8.21%)
  
  
  ***************************
  Time-Step Critical Elements
  ***************************
  Link WS02006252WS02006251 (41.28%)
  Link 3 (34.31%)
  Link WS02006280WS02006229 (10.36%)
  Link WS02006238WS02006235 (3.19%)
  Link WS02003066WSF200 (1.87%)
  
  
  ********************************
  Highest Flow Instability Indexes
  ********************************
  Link WS02006113WS02006111 (41)
  Link WS02006111WS02006112 (9)
  Link YS02164001YS02001641 (7)
  Link YS02163601YS02164001 (7)
  Link YS02001765YS02001762 (7)
  
  
  *************************
  Routing Time Step Summary
  *************************
  Minimum Time Step           :     0.50 sec
  Average Time Step           :     1.54 sec
  Maximum Time Step           :     5.00 sec
  Percent in Steady State     :    -0.00
  Average Iterations per Step :     2.47
  Percent Not Converging      :     4.35
  
  
  ***************************
  Subcatchment Runoff Summary
  ***************************
  
  ------------------------------------------------------------------------------------------------------------------------------
                            Total      Total      Total      Total     Imperv       Perv      Total       Total     Peak  Runoff
                           Precip      Runon       Evap      Infil     Runoff     Runoff     Runoff      Runoff   Runoff   Coeff
  Subcatchment                 mm         mm         mm         mm         mm         mm         mm    10^6 ltr      LPS
  ------------------------------------------------------------------------------------------------------------------------------
  sub0                       4.69       0.00       0.00       0.33       3.09       0.00       3.09        0.00     1.10   0.660
  sub1                       4.69       0.00       0.00       0.52       2.92       0.00       2.92        0.02     5.42   0.623
  sub2                       4.69       0.00       0.00       1.73       2.05       0.00       2.05        0.02     4.73   0.437
  sub3                       4.69       0.00       0.00       1.73       2.02       0.00       2.02        0.05     9.56   0.430
  sub4                       4.69       0.00       0.00       0.52       2.79       0.00       2.79        0.06    10.55   0.595
  sub5                       4.69       0.00       0.00       0.33       3.05       0.00       3.05        0.03     9.64   0.651
  sub7                       4.69       0.00       0.00       0.42       3.01       0.00       3.01        0.01     3.49   0.642
  sub8                       4.69       0.00       0.00       0.42       3.00       0.00       3.00        0.02     6.09   0.641
  sub9                       4.69       0.00       0.00       0.42       3.00       0.00       3.00        0.01     4.50   0.640
  sub10                      4.69       0.00       0.00       0.37       3.02       0.00       3.02        0.03     9.66   0.645
  sub11                      4.69       0.00       0.00       0.37       3.04       0.00       3.04        0.04    11.50   0.648
  sub12                      4.69       0.00       0.00       0.61       2.89       0.00       2.89        0.03     9.98   0.616
  sub14                      4.69       0.00       0.00       0.42       3.00       0.00       3.00        0.03     8.79   0.640
  sub15                      4.69       0.00       0.00       1.41       2.30       0.00       2.30        0.04    11.89   0.492
  sub16                      4.69       0.00       0.00       1.55       2.22       0.00       2.22        0.02     8.71   0.474
  sub17                      4.69       0.00       0.00       1.50       2.25       0.00       2.25        0.02     7.00   0.481
  sub22                      4.69       0.00       0.00       2.02       1.88       0.00       1.88        0.12    39.41   0.402
  sub23                      4.69       0.00       0.00       1.73       2.08       0.00       2.08        0.10    33.66   0.445
  sub60                      4.69       0.00       0.00       0.56       1.88       0.00       1.88        0.57    48.82   0.401
  sub61                      4.69       0.00       0.00       0.80       2.05       0.00       2.05        0.63    62.63   0.438
  sub62                      4.69       0.00       0.00       0.37       2.19       0.00       2.19        0.67    63.58   0.466
  sub63                      4.69       0.00       0.00       1.36       1.84       0.00       1.84        0.56    58.99   0.393
  sub64                      4.69       0.00       0.00       0.70       1.79       0.00       1.79        0.55    46.30   0.383
  sub65                      4.69       0.00       0.00       0.61       1.81       0.00       1.81        0.56    46.92   0.387
  sub66                      4.69       0.00       0.00       1.36       1.57       0.00       1.57        0.48    42.72   0.336
  sub67                      4.69       0.00       0.00       0.37       2.45       0.00       2.45        0.76    83.39   0.522
  sub68                      4.69       0.00       0.00       0.66       2.19       0.00       2.19        0.67    69.65   0.468
  sub69                      4.69       0.00       0.00       0.70       2.41       0.00       2.41        0.56    70.96   0.515
  sub70                      4.69       2.46       0.00       2.43       2.84       0.00       2.84        0.65    52.78   0.397
  sub71                      4.69       0.00       0.00       0.37       2.08       0.00       2.08        0.49    44.02   0.443
  sub72                      4.69       0.00       0.00       0.33       1.40       0.00       1.40        0.29    20.16   0.299
  sub73                      4.69       2.76       0.00       2.53       2.80       0.00       2.80        0.66    44.95   0.376
  sub74                      4.69       0.00       0.00       3.52       0.73       0.00       0.73        0.29    39.98   0.156
  
  
  ******************
  Node Depth Summary
  ******************
  
  ---------------------------------------------------------------------------------
                                 Average  Maximum  Maximum  Time of Max    Reported
                                   Depth    Depth      HGL   Occurrence   Max Depth
  Node                 Type       Meters   Meters   Meters  days hr:min      Meters
  ---------------------------------------------------------------------------------
  WS02001211           JUNCTION     0.46     0.60     5.43     0  04:41        0.60
  WS02001212           JUNCTION     0.22     0.33     5.39     0  04:42        0.33
  WS02001213           JUNCTION     0.42     0.53     5.29     0  04:42        0.53
  WS02003069           JUNCTION     0.25     0.37     4.95     0  05:33        0.37
  WS02003072           JUNCTION     0.32     0.44     4.81     0  05:34        0.44
  WS02003073           JUNCTION     0.18     0.26     4.33     0  05:35        0.26
  WS02003060           JUNCTION     0.23     0.33     5.26     0  05:32        0.33
  WS02003066           JUNCTION     0.16     0.24     5.79     0  05:31        0.24
  WS02003059           JUNCTION     0.49     0.59     5.28     0  05:33        0.59
  WS02003067           JUNCTION     0.42     0.60     5.92     0  05:31        0.60
  WS02004401           JUNCTION     0.49     0.68     6.68     0  05:27        0.68
  WS02004402           JUNCTION     0.53     0.71     6.67     0  05:27        0.71
  WS02004403           JUNCTION     0.55     0.74     6.67     0  05:27        0.74
  WS02004404           JUNCTION     0.63     0.81     6.66     0  05:27        0.81
  WS02004406           JUNCTION     0.64     0.82     6.65     0  05:27        0.82
  WS02004409           JUNCTION     0.30     0.49     6.26     0  05:29        0.49
  WS02004410           JUNCTION     0.32     0.52     6.24     0  05:30        0.51
  WS02004411           JUNCTION     0.34     0.53     6.21     0  05:30        0.53
  WS02004412           JUNCTION     0.37     0.55     6.19     0  05:30        0.55
  WS02004413           JUNCTION     0.52     0.72     6.19     0  05:30        0.72
  WS02004405           JUNCTION     0.63     0.81     6.66     0  05:27        0.81
  WS02006109           JUNCTION     0.57     0.76     7.38     0  05:23        0.76
  WS02006110           JUNCTION     0.59     0.76     7.34     0  05:23        0.76
  WS02006111           JUNCTION     0.15     0.22     6.93     0  05:24        0.22
  WS02006112           JUNCTION     0.65     0.85     6.73     0  05:26        0.85
  WS02006113           JUNCTION     0.23     0.35     7.24     0  05:23        0.35
  WS02006115           JUNCTION     0.38     0.56     6.70     0  05:26        0.56
  WS02006116           JUNCTION     0.46     0.65     6.69     0  05:27        0.65
  WS02006230           JUNCTION     0.49     0.71     7.46     0  05:22        0.71
  WS02006231           JUNCTION     0.30     0.49     7.61     0  05:22        0.49
  WS02006232           JUNCTION     0.42     0.63     7.67     0  05:21        0.63
  WS02006234           JUNCTION     0.32     0.55     7.71     0  05:21        0.55
  WS02006235           JUNCTION     0.35     0.58     7.75     0  05:21        0.58
  WS02006238           JUNCTION     0.37     0.61     7.75     0  05:21        0.61
  WS02006240           JUNCTION     0.26     0.50     7.79     0  05:21        0.50
  WS02006242           JUNCTION     0.31     0.55     7.82     0  05:21        0.55
  WS02006243           JUNCTION     0.20     0.42     7.84     0  05:21        0.42
  WS02006245           JUNCTION     0.20     0.40     7.89     0  05:20        0.40
  WS02006247           JUNCTION     0.22     0.42     7.92     0  05:20        0.42
  WS02006248           JUNCTION     0.18     0.37     7.95     0  05:20        0.37
  WS02006249           JUNCTION     0.22     0.41     8.00     0  05:20        0.40
  WS02006239           JUNCTION     0.32     0.56     7.77     0  05:21        0.56
  WS02006251           JUNCTION     0.20     0.39     8.06     0  05:19        0.39
  WS02006252           JUNCTION     0.19     0.35     8.59     0  05:10        0.35
  WS02006253           JUNCTION     0.23     0.42     8.07     0  02:40        0.42
  WS02006256           JUNCTION     0.78     1.19     8.13     0  05:10        1.19
  WS02004138           JUNCTION     0.07     0.14     7.39     0  04:40        0.14
  WS02004407           JUNCTION     0.14     0.23     6.54     0  05:28        0.23
  WS02006228           JUNCTION     0.55     0.75     7.40     0  05:23        0.75
  WS02006229           JUNCTION     0.52     0.72     7.41     0  05:22        0.72
  WS02006280           JUNCTION     0.05     0.12     8.40     0  02:20        0.12
  WS02006284           JUNCTION     0.34     0.45     8.85     0  02:20        0.45
  WS02006287           JUNCTION     0.07     0.18     9.14     0  02:20        0.18
  WSF200               JUNCTION     0.13     0.22     5.45     0  05:31        0.22
  HS02004901           JUNCTION     0.10     0.20    10.03     0  02:18        0.20
  HS02004881           JUNCTION     0.00     0.02     9.05     0  02:19        0.02
  HS02004876           JUNCTION     0.03     0.09     9.12     0  02:18        0.09
  HS02004870           JUNCTION     0.01     0.03     9.32     0  02:19        0.03
  HS02004862           JUNCTION     0.01     0.04     9.42     0  02:20        0.04
  HS02004856           JUNCTION     0.07     0.10     9.52     0  02:19        0.10
  HS02004852           JUNCTION     0.00     0.02     9.53     0  02:20        0.02
  HS02004848           JUNCTION     0.00     0.02     9.62     0  02:18        0.02
  HS02004842           JUNCTION     0.33     0.35     9.62     0  02:18        0.35
  HS02004837           JUNCTION     0.02     0.04     9.62     0  02:17        0.04
  HS02004830           JUNCTION     0.03     0.05     9.52     0  02:18        0.05
  HS02004824           JUNCTION     0.02     0.03     9.44     0  02:21        0.03
  HS02004817           JUNCTION     0.42     0.50     9.35     0  02:20        0.50
  HS02004807           JUNCTION     0.10     0.18     9.35     0  02:20        0.18
  HS02004802           JUNCTION     0.14     0.21     9.34     0  02:20        0.21
  HS02004799           JUNCTION     0.09     0.22     9.43     0  02:18        0.22
  HS02004792           JUNCTION     0.02     0.08     9.60     0  02:17        0.08
  HS02004788           JUNCTION     0.02     0.06     9.96     0  02:19        0.06
  HS02004785           JUNCTION     0.03     0.11    10.01     0  02:19        0.11
  HS02004777           JUNCTION     0.12     0.23    10.03     0  02:18        0.23
  HS02004770           JUNCTION     0.09     0.20    10.03     0  02:18        0.20
  HS02004480           JUNCTION     0.06     0.17     9.41     0  02:19        0.17
  HS02004479           JUNCTION     0.09     0.21     9.41     0  02:18        0.21
  HS02004478           JUNCTION     0.04     0.11     9.33     0  02:20        0.11
  YS02001745           JUNCTION     0.15     0.32     7.84     0  07:08        0.31
  YS02001748           JUNCTION     0.45     0.75     7.83     0  07:03        0.75
  YS02001751           JUNCTION     0.62     0.96     7.84     0  07:02        0.96
  YS02001754           JUNCTION     0.85     1.23     7.83     0  07:02        1.23
  YS02001762           JUNCTION     1.04     1.44     7.84     0  06:33        1.43
  YS02001765           JUNCTION     0.99     1.40     7.85     0  06:33        1.39
  YS02001767           JUNCTION     0.96     1.37     7.86     0  06:36        1.35
  YS02001770           JUNCTION     0.96     1.37     7.87     0  06:36        1.36
  YS02001774           JUNCTION     1.02     1.45     7.87     0  06:36        1.44
  YS02001779           JUNCTION     0.78     1.19     7.88     0  06:36        1.17
  YS02001882           JUNCTION     0.22     0.37     7.08     0  02:51        0.37
  YS02001884           JUNCTION     0.32     0.47     7.08     0  02:51        0.47
  YS02001759           JUNCTION     1.07     1.47     7.83     0  07:02        1.47
  YS02001887           JUNCTION     0.40     0.54     7.08     0  02:51        0.54
  YS02001890           JUNCTION     0.43     0.58     7.08     0  02:51        0.58
  YS02001898           JUNCTION     0.20     0.33     7.07     0  02:53        0.33
  YS02001901           JUNCTION     0.31     0.46     7.07     0  02:52        0.46
  YS02001904           JUNCTION     0.29     0.43     7.06     0  02:52        0.43
  YS02001907           JUNCTION     0.62     0.78     7.06     0  02:52        0.78
  YS02001910           JUNCTION     0.41     0.56     7.06     0  02:52        0.56
  YS02001915           JUNCTION     0.22     0.35     7.06     0  02:51        0.35
  YS02001918           JUNCTION     0.06     0.08     7.15     0  03:03        0.08
  YS02001619           JUNCTION     0.58     0.91     7.84     0  07:02        0.90
  YS02001629           JUNCTION     0.91     1.29     7.84     0  07:02        1.29
  YS02001641           JUNCTION     1.01     1.40     7.83     0  07:02        1.40
  YS02001644           JUNCTION     1.01     1.40     7.83     0  07:02        1.40
  YS02001652           JUNCTION     0.86     1.24     7.83     0  07:03        1.24
  YS02001655           JUNCTION     0.64     0.99     7.84     0  07:03        0.98
  YS02001920           JUNCTION     0.15     0.18     7.19     0  03:03        0.18
  YS02001923           JUNCTION     0.05     0.07     7.33     0  03:02        0.07
  YS02001926           JUNCTION     0.12     0.15     7.59     0  03:02        0.15
  YS02001929           JUNCTION     0.05     0.07     7.76     0  03:01        0.07
  YS02001658           JUNCTION     0.40     0.69     7.83     0  07:04        0.69
  YS02001661           JUNCTION     0.24     0.43     7.84     0  07:04        0.43
  YS02001664           JUNCTION     0.05     0.09     8.02     0  02:43        0.09
  YS02001622           JUNCTION     0.60     0.93     7.83     0  07:02        0.92
  YS02001633           JUNCTION     0.99     1.38     7.84     0  07:02        1.38
  YS02001649           JUNCTION     1.05     1.44     7.83     0  07:02        1.44
  YS02001757           JUNCTION     1.17     1.57     7.83     0  07:02        1.57
  YS02001895           JUNCTION     0.19     0.33     7.08     0  02:51        0.33
  YS02001625           JUNCTION     0.86     1.23     7.83     0  07:02        1.23
  YS02163301           JUNCTION     0.93     1.32     7.84     0  07:02        1.32
  YS02163601           JUNCTION     1.05     1.44     7.84     0  07:02        1.44
  YS02164001           JUNCTION     0.99     1.38     7.84     0  07:02        1.38
  YS02001647           JUNCTION     0.85     1.22     7.83     0  07:02        1.22
  YSB1154              JUNCTION     0.23     0.35     9.41     0  02:19        0.35
  YSB6556              JUNCTION     0.12     0.24     9.41     0  02:18        0.24
  YSB1174              JUNCTION     0.18     0.30     9.41     0  02:19        0.30
  YSB1171              JUNCTION     0.38     0.51     9.41     0  02:18        0.51
  YS02006553           JUNCTION     0.62     0.78     7.06     0  02:52        0.78
  YS02006561           JUNCTION     0.11     0.18     6.84     0  02:52        0.18
  YS02006556           JUNCTION     0.60     0.75     7.06     0  02:52        0.75
  YS02006558           JUNCTION     0.64     0.79     7.06     0  02:52        0.79
  YS02001783           JUNCTION     0.20     0.58     6.72     0  03:08        0.56
  YS02001784           JUNCTION     0.24     0.65     6.72     0  03:08        0.65
  YS02001786           JUNCTION     0.22     0.67     6.70     0  03:09        0.67
  YS02001788           JUNCTION     0.18     0.69     6.67     0  03:09        0.69
  YS02001790           JUNCTION     0.25     1.01     6.65     0  03:09        1.00
  YS02001791           JUNCTION     0.24     1.15     6.62     0  03:09        1.15
  YS02001793           JUNCTION     0.39     1.78     6.61     0  03:08        1.78
  WS02004139           JUNCTION     0.39     0.53     5.44     0  04:42        0.53
  WSC                  OUTFALL      0.18     0.26     0.93     0  05:35        0.26
  3                    OUTFALL      0.04     0.19     6.19     0  05:10        0.19
  4                    OUTFALL      0.00     0.00     7.00     0  00:00        0.00
  5                    OUTFALL      0.00     0.00     5.00     0  00:00        0.00
  JK-storage           STORAGE      2.59     5.80     6.60     0  03:07        5.80
  CC-storage           STORAGE      0.49     0.83     7.83     0  07:04        0.83
  XR-storage           STORAGE      7.69     7.72     5.72     0  00:35        7.72
  
  
  *******************
  Node Inflow Summary
  *******************
  
  -------------------------------------------------------------------------------------------------
                                  Maximum  Maximum                  Lateral       Total        Flow
                                  Lateral    Total  Time of Max      Inflow      Inflow     Balance
                                   Inflow   Inflow   Occurrence      Volume      Volume       Error
  Node                 Type           LPS      LPS  days hr:min    10^6 ltr    10^6 ltr     Percent
  -------------------------------------------------------------------------------------------------
  WS02001211           JUNCTION      7.35   189.40     0  04:40       0.207        1.99       1.324
  WS02001212           JUNCTION      0.00   183.44     0  04:41           0        1.96       0.566
  WS02001213           JUNCTION      0.00   181.98     0  04:42           0        1.96       0.895
  WS02003069           JUNCTION      0.32   424.57     0  05:33     0.00902         5.4       0.385
  WS02003072           JUNCTION      0.00   424.46     0  05:33           0        5.38       0.511
  WS02003073           JUNCTION      1.82   426.20     0  05:34      0.0514        5.41       0.557
  WS02003060           JUNCTION     16.53   424.27     0  05:32       0.466        5.43       0.368
  WS02003066           JUNCTION      0.00   310.64     0  05:31           0        3.05       0.126
  WS02003059           JUNCTION      0.00   182.41     0  04:42           0        1.95       1.646
  WS02003067           JUNCTION      0.00   310.61     0  05:31           0        3.06       0.271
  WS02004401           JUNCTION      0.00   321.83     0  05:25           0        3.25       0.537
  WS02004402           JUNCTION      0.00   320.57     0  05:26           0        3.24       0.521
  WS02004403           JUNCTION      0.00   319.65     0  05:26           0        3.22       0.485
  WS02004404           JUNCTION      0.16   319.23     0  05:26     0.00457        3.21       0.374
  WS02004406           JUNCTION      0.00   318.70     0  05:27           0        3.18       0.925
  WS02004409           JUNCTION      0.00   318.36     0  05:28           0        3.15       0.404
  WS02004410           JUNCTION      0.00   315.94     0  05:28           0        3.13       0.480
  WS02004411           JUNCTION      0.00   313.81     0  05:29           0        3.12       0.508
  WS02004412           JUNCTION      0.00   312.23     0  05:29           0         3.1       0.568
  WS02004413           JUNCTION      0.00   311.10     0  05:30           0        3.09       0.875
  WS02004405           JUNCTION      0.04   318.98     0  05:27     0.00107         3.2       0.574
  WS02006109           JUNCTION      1.23   328.91     0  05:23      0.0347        3.32       0.421
  WS02006110           JUNCTION      0.00   328.91     0  05:23           0        3.31       0.460
  WS02006111           JUNCTION      0.00   334.10     0  05:23           0        3.29       0.076
  WS02006112           JUNCTION      7.00   329.66     0  02:33      0.0193        3.31       0.673
  WS02006113           JUNCTION      0.00   328.93     0  05:23           0         3.3       0.168
  WS02006115           JUNCTION      0.00   326.78     0  05:24           0        3.28       0.469
  WS02006116           JUNCTION      0.00   323.68     0  05:25           0        3.27       0.451
  WS02006230           JUNCTION     10.28   315.19     0  05:22        0.29         2.6       0.326
  WS02006231           JUNCTION      0.00   304.92     0  05:21           0        2.32       0.111
  WS02006232           JUNCTION      0.00   304.95     0  05:21           0        2.33       0.459
  WS02006234           JUNCTION      0.00   305.01     0  05:21           0        2.32      -0.051
  WS02006235           JUNCTION      0.00   305.08     0  05:20           0        2.41       0.448
  WS02006238           JUNCTION      0.00   211.69     0  07:20           0        1.32       0.215
  WS02006240           JUNCTION      0.00   204.35     0  07:21           0        1.25       0.195
  WS02006242           JUNCTION      0.00   203.45     0  07:26           0        1.22       0.253
  WS02006243           JUNCTION      0.00   201.90     0  07:26           0         1.2      -0.526
  WS02006245           JUNCTION      0.00   202.00     0  02:41           0         1.2       0.596
  WS02006247           JUNCTION      0.00   203.55     0  02:41           0         1.2       0.129
  WS02006248           JUNCTION      0.00   204.71     0  02:41           0         1.2      -0.273
  WS02006249           JUNCTION      0.00   207.20     0  02:40           0        1.21       0.516
  WS02006239           JUNCTION      0.00   207.60     0  07:20           0        1.29       0.202
  WS02006251           JUNCTION      0.08   212.51     0  02:40     0.00217        1.22      -0.065
  WS02006252           JUNCTION      0.00   200.00     0  05:10           0         1.1       0.023
  WS02006253           JUNCTION      1.10    29.53     0  02:19      0.0025       0.123       0.187
  WS02006256           JUNCTION      0.00   599.97     0  05:10           0        2.04       0.142
  WS02004138           JUNCTION      0.00   189.99     0  01:50           0         1.8       0.034
  WS02004407           JUNCTION      0.00   318.45     0  05:27           0        3.15       0.171
  WS02006228           JUNCTION      0.00   327.74     0  05:22           0         3.3       0.335
  WS02006229           JUNCTION      0.00   327.94     0  02:32           0        3.31       0.320
  WS02006280           JUNCTION      0.00   155.92     0  02:20           0       0.718       0.011
  WS02006284           JUNCTION      0.10   155.92     0  02:20      0.0027       0.719       0.149
  WS02006287           JUNCTION      0.00   155.83     0  02:20           0       0.717       0.100
  WSF200               JUNCTION      0.00   310.63     0  05:31           0        3.05       0.108
  HS02004901           JUNCTION      8.71     8.71     0  02:11      0.0233      0.0234       8.114
  HS02004881           JUNCTION      3.49    28.72     0  02:19      0.0101       0.106       0.087
  HS02004876           JUNCTION      5.42    25.55     0  02:19      0.0194       0.096       0.545
  HS02004870           JUNCTION      6.09    20.28     0  02:19      0.0192      0.0767       0.139
  HS02004862           JUNCTION      4.93    14.68     0  02:19      0.0247      0.0577       0.287
  HS02004856           JUNCTION      4.50     9.81     0  02:18      0.0144      0.0344       4.349
  HS02004852           JUNCTION      0.00     5.64     0  02:19           0        0.02       0.242
  HS02004848           JUNCTION      9.56     9.56     0  02:21      0.0454      0.0454       0.095
  HS02004842           JUNCTION      0.00     4.49     0  00:03           0      0.0384      51.234
  HS02004837           JUNCTION     16.01    19.73     0  02:17       0.212       0.238       0.332
  HS02004830           JUNCTION      0.15    19.86     0  02:17     0.00423       0.228       0.542
  HS02004824           JUNCTION     10.60    30.33     0  02:21      0.0596       0.286       0.189
  HS02004817           JUNCTION      0.60    30.93     0  02:21      0.0169       0.303       5.820
  HS02004807           JUNCTION     11.50    41.28     0  02:20      0.0353       0.321       1.332
  HS02004802           JUNCTION      0.00    41.37     0  02:21           0       0.317       1.298
  HS02004799           JUNCTION      8.79    97.59     0  02:17      0.0285       0.358       0.631
  HS02004792           JUNCTION     39.69    89.11     0  02:17       0.127        0.33       0.126
  HS02004788           JUNCTION     13.56    51.86     0  02:18      0.0867       0.205       0.188
  HS02004785           JUNCTION      0.15    38.92     0  02:17     0.00423        0.12       0.402
  HS02004777           JUNCTION      0.03    39.39     0  02:16    0.000846        0.12       4.495
  HS02004770           JUNCTION     33.66    40.86     0  02:14      0.0993       0.121       2.627
  HS02004480           JUNCTION      0.00   114.97     0  02:18           0       0.415       0.168
  HS02004479           JUNCTION      0.00    17.76     0  02:20           0      0.0694       1.061
  HS02004478           JUNCTION      0.00   155.84     0  02:19           0       0.717       0.090
  YS02001745           JUNCTION     48.83    77.43     0  05:38       0.569       0.605       0.668
  YS02001748           JUNCTION      0.04   120.92     0  03:33     0.00127        0.64       2.480
  YS02001751           JUNCTION      0.01   151.93     0  03:33     0.00031       0.592       3.838
  YS02001754           JUNCTION      0.26   142.06     0  03:25     0.00733       0.566       4.475
  YS02001762           JUNCTION      0.00    90.59     0  03:26           0       0.598       3.690
  YS02001765           JUNCTION      0.00    85.60     0  02:50           0         0.6       4.143
  YS02001767           JUNCTION      0.54   106.81     0  03:51      0.0151       0.624       6.178
  YS02001770           JUNCTION     63.73   115.74     0  03:47       0.676       0.729       4.640
  YS02001774           JUNCTION      0.00    75.15     0  03:48           0        0.14      21.982
  YS02001779           JUNCTION      0.01    70.16     0  03:50    0.000141      0.0626      31.835
  YS02001882           JUNCTION      0.00     3.20     0  02:10           0     0.00398      61.177
  YS02001884           JUNCTION      0.00     9.28     0  02:10           0      0.0161      39.022
  YS02001759           JUNCTION     62.67   140.13     0  02:51       0.633         1.2       1.979
  YS02001887           JUNCTION     83.84    83.84     0  02:41       0.768       0.775       0.882
  YS02001890           JUNCTION      0.00    83.37     0  02:44           0       0.755       0.996
  YS02001898           JUNCTION      0.00    82.99     0  02:47           0       0.744       0.257
  YS02001901           JUNCTION      0.00    83.01     0  02:47           0       0.744       0.696
  YS02001904           JUNCTION      0.00    82.63     0  02:48           0       0.744       0.648
  YS02001907           JUNCTION      0.00   148.84     0  02:54           0        1.58       1.373
  YS02001910           JUNCTION      0.00    67.29     0  03:00           0        0.85       1.152
  YS02001915           JUNCTION     44.04    66.80     0  03:00        0.49       0.854       0.484
  YS02001918           JUNCTION      0.00    23.06     0  03:03           0       0.365       0.253
  YS02001619           JUNCTION     42.72    42.72     0  02:55       0.483       0.484       2.341
  YS02001629           JUNCTION      0.00    98.20     0  03:53           0       0.428       6.586
  YS02001641           JUNCTION      0.00   108.67     0  03:49           0       0.867       2.398
  YS02001644           JUNCTION     46.34   139.22     0  03:04       0.546        1.39       1.821
  YS02001652           JUNCTION      0.00    95.91     0  03:30           0       0.544       4.519
  YS02001655           JUNCTION      0.15   144.16     0  03:43     0.00434        0.57       4.283
  YS02001920           JUNCTION      2.87    23.07     0  03:02      0.0809       0.367       0.496
  YS02001923           JUNCTION      0.04    20.20     0  03:02     0.00106       0.286       0.087
  YS02001926           JUNCTION      0.05    20.21     0  03:01     0.00147       0.287       0.629
  YS02001929           JUNCTION     20.16    20.16     0  03:01       0.285       0.285       0.083
  YS02001658           JUNCTION      0.00   110.34     0  03:42           0       0.595       2.740
  YS02001661           JUNCTION      0.00    58.99     0  02:43           0       0.573       1.265
  YS02001664           JUNCTION     58.99    58.99     0  02:43       0.557       0.557       0.022
  YS02001622           JUNCTION      0.00    73.22     0  03:53           0       0.483       6.472
  YS02001633           JUNCTION     47.12   104.98     0  03:52       0.563       0.923       3.515
  YS02001649           JUNCTION      0.00   212.61     0  02:56           0        1.84       2.056
  YS02001757           JUNCTION      0.00   419.51     0  02:49           0        3.45       2.728
  YS02001895           JUNCTION      0.00    83.06     0  02:46           0       0.747       0.452
  YS02001625           JUNCTION      0.00   111.99     0  03:51           0       0.472       8.940
  YS02163301           JUNCTION      0.00    86.10     0  03:52           0       0.389       6.609
  YS02163601           JUNCTION      0.11   112.18     0  03:49      0.0031       0.889       3.466
  YS02164001           JUNCTION      0.00   111.81     0  03:49           0       0.869       2.246
  YS02001647           JUNCTION      0.00   133.64     0  02:54           0        1.35       2.187
  YSB1154              JUNCTION      9.64     9.64     0  02:15      0.0345      0.0359       4.186
  YSB6556              JUNCTION      0.00     9.52     0  02:18           0       0.037       3.481
  YSB1174              JUNCTION      9.98     9.98     0  02:10      0.0252      0.0263       5.141
  YSB1171              JUNCTION      0.00    17.78     0  02:18           0      0.0688      10.114
  YS02006553           JUNCTION      0.00   148.88     0  02:54           0        1.57       0.893
  YS02006561           JUNCTION      0.00   218.65     0  02:52           0        2.22       0.025
  YS02006556           JUNCTION      0.00   148.95     0  02:55           0        1.58       0.641
  YS02006558           JUNCTION     70.53   218.66     0  02:52       0.699        2.25       0.195
  YS02001783           JUNCTION      0.00   218.64     0  02:52           0        2.22       0.057
  YS02001784           JUNCTION      1.06   248.76     0  03:08      0.0299        2.25       0.100
  YS02001786           JUNCTION      0.06   257.03     0  03:10     0.00159        2.25       0.098
  YS02001788           JUNCTION      0.07   286.37     0  03:10       0.002        2.25       0.052
  YS02001790           JUNCTION      0.15   275.23     0  03:09     0.00437        2.25       0.028
  YS02001791           JUNCTION      0.00   285.59     0  05:07           0        2.25       0.026
  YS02001793           JUNCTION      0.00   386.20     0  04:30           0        2.27       0.083
  WS02004139           JUNCTION      0.32   189.58     0  04:40     0.00905        1.81       1.183
  WSC                  OUTFALL       0.00   425.92     0  05:35           0        5.38       0.000
  3                    OUTFALL       0.00   458.51     0  05:10           0       0.886       0.000
  4                    OUTFALL       0.00     0.00     0  00:00           0           0       0.000 ltr
  5                    OUTFALL       0.00     0.00     0  00:00           0           0       0.000 ltr
  JK-storage           STORAGE       0.00   438.50     0  04:23           0        2.42      -2.255
  CC-storage           STORAGE       0.00   346.89     0  02:53           0        3.33       1.438
  XR-storage           STORAGE     280.13   280.13     0  02:48        6.59        7.19       0.007
  
  
  **********************
  Node Surcharge Summary
  **********************
  
  Surcharging occurs when water rises above the top of the highest conduit.
  ---------------------------------------------------------------------
                                               Max. Height   Min. Depth
                                   Hours       Above Crown    Below Rim
  Node                 Type      Surcharged         Meters       Meters
  ---------------------------------------------------------------------
  YS02001754           JUNCTION        2.54          0.176        0.974
  YS02001762           JUNCTION        4.25          0.439        0.711
  YS02001765           JUNCTION        3.98          0.397        0.703
  YS02001767           JUNCTION        3.76          0.367        0.663
  YS02001770           JUNCTION        3.46          0.345        0.575
  YS02001774           JUNCTION        4.17          0.452        0.598
  YS02001779           JUNCTION        2.11          0.192        0.488
  YS02001759           JUNCTION        4.39          0.470        0.740
  YS02001641           JUNCTION        4.07          0.398        0.702
  YS02001644           JUNCTION        4.07          0.402        0.518
  YS02001652           JUNCTION        2.97          0.209        0.921
  YS02001633           JUNCTION        3.82          0.363        0.697
  YS02001649           JUNCTION        4.29          0.442        0.608
  YS02001757           JUNCTION        4.90          0.572        0.638
  YS02001625           JUNCTION        3.08          0.229        0.551
  YS02163301           JUNCTION        3.49          0.321        0.709
  YS02163601           JUNCTION        4.27          0.438        0.642
  YS02164001           JUNCTION        3.94          0.377        0.723
  YS02001647           JUNCTION        3.05          0.223        0.677
  YS02001790           JUNCTION        0.99          0.207        0.950
  YS02001791           JUNCTION        1.16          0.354        1.566
  YS02001793           JUNCTION        1.46          0.778        1.822
  
  
  *********************
  Node Flooding Summary
  *********************
  
  Flooding refers to all water that overflows a node, whether it ponds or not.
  --------------------------------------------------------------------------
                                                             Total   Maximum
                                 Maximum   Time of Max       Flood    Ponded
                        Hours       Rate    Occurrence      Volume     Depth
  Node                 Flooded       LPS   days hr:min    10^6 ltr    Meters
  --------------------------------------------------------------------------
  JK-storage              0.75    277.33      0  03:09       0.422     0.000
  XR-storage              7.24    279.49      0  02:40       4.468     0.000
  
  
  **********************
  Storage Volume Summary
  **********************
  
  --------------------------------------------------------------------------------------------------
                         Average     Avg  Evap Exfil       Maximum     Max    Time of Max    Maximum
                          Volume    Pcnt  Pcnt  Pcnt        Volume    Pcnt     Occurrence    Outflow
  Storage Unit           1000 m3    Full  Loss  Loss       1000 m3    Full    days hr:min        LPS
  --------------------------------------------------------------------------------------------------
  JK-storage               0.130      45     0     0         0.291     100       0  03:07     599.97
  CC-storage               1.358       9     0     0         2.301      15       0  07:04     200.00
  XR-storage               0.923     100     0     0         0.926     100       0  00:35     189.99
  
  
  ***********************
  Outfall Loading Summary
  ***********************
  
  -----------------------------------------------------------
                         Flow       Avg       Max       Total
                         Freq      Flow      Flow      Volume
  Outfall Node           Pcnt       LPS       LPS    10^6 ltr
  -----------------------------------------------------------
  WSC                   99.99    209.37    425.92       5.375
  3                     44.52    158.48    458.51       0.886
  4                      0.00      0.00      0.00       0.000
  5                      0.00      0.00      0.00       0.000
  -----------------------------------------------------------
  System                36.13    367.85    624.63       6.262
  
  
  ********************
  Link Flow Summary
  ********************
  
  -----------------------------------------------------------------------------
                                 Maximum  Time of Max   Maximum    Max/    Max/
                                  |Flow|   Occurrence   |Veloc|    Full    Full
  Link                 Type          LPS  days hr:min     m/sec    Flow   Depth
  -----------------------------------------------------------------------------
  WS02003066WSF200     CONDUIT    310.63     0  05:31      2.47    0.05    0.17
  WS02006287WS02006284 CONDUIT    155.82     0  02:20      1.47    0.07    0.19
  WS02006284WS02006280 CONDUIT    155.92     0  02:20      1.72    0.07    0.17
  WS02006280WS02006229 CONDUIT    155.93     0  02:20      2.76    0.03    0.12
  WS02006229WS02006228 CONDUIT    327.74     0  05:22      0.69    1.09    0.90
  WS02006256WS02006235 CONDUIT    158.10     0  01:43      2.30    1.67    1.00
  WS02006253WS02006251 CONDUIT     30.48     0  02:27      0.44    0.09    0.57
  WS02006252WS02006251 CONDUIT    200.34     0  07:10      1.97    0.74    0.76
  WS02006251WS02006249 CONDUIT    207.20     0  02:40      0.93    0.60    0.57
  WS02006249WS02006248 CONDUIT    204.71     0  02:41      1.01    1.12    0.54
  WS02006248WS02006247 CONDUIT    203.55     0  02:41      0.98    0.44    0.56
  WS02006247WS02006245 CONDUIT    202.00     0  02:41      0.95    1.60    0.58
  WS02006245WS02006243 CONDUIT    201.90     0  07:26      1.05    0.60    0.58
  WS02006243WS02006242 CONDUIT    203.45     0  07:26      0.90    0.43    0.68
  WS02006242WS02006240 CONDUIT    204.35     0  07:21      0.81    0.81    0.74
  WS02006240WS02006239 CONDUIT    207.60     0  07:20      0.93    0.65    0.73
  WS02006239WS02006238 CONDUIT    211.69     0  07:20      0.79    0.68    0.82
  WS02006238WS02006235 CONDUIT    213.74     0  07:20      0.91    0.48    0.85
  WS02006235WS02006234 CONDUIT    305.01     0  05:21      0.94    3.22    0.79
  WS02006234WS02006232 CONDUIT    304.95     0  05:21      1.02    0.62    0.85
  WS02006232WS02006231 CONDUIT    304.92     0  05:21      0.93    0.64    0.79
  WS02006231WS02006230 CONDUIT    304.92     0  05:22      1.29    4.63    0.59
  WS02006230WS02006229 CONDUIT    315.17     0  05:22      0.82    7.01    0.98
  WS02006228WS02006109 CONDUIT    327.68     0  05:23      0.67    1.43    0.93
  WS02006116WS02004401 CONDUIT    321.83     0  05:25      0.59    0.44    0.66
  WS02006115WS02006116 CONDUIT    323.68     0  05:25      0.83    0.42    0.58
  WS02006113WS02006111 CONDUIT    334.10     0  05:23      2.08    0.40    0.36
  WS02006112WS02006115 CONDUIT    326.78     0  05:24      0.59    0.19    0.70
  WS02006111WS02006112 CONDUIT    329.40     0  05:24      0.99    0.16    0.63
  WS02006110WS02006113 CONDUIT    328.93     0  05:23      0.89    0.30    0.69
  WS02006109WS02006110 CONDUIT    328.91     0  05:23      0.70    0.63    0.88
  WS02004411WS02004412 CONDUIT    312.23     0  05:29      0.72    0.44    0.54
  WS02004401WS02004402 CONDUIT    320.57     0  05:26      0.55    0.38    0.70
  WS02004413WS02003067 CONDUIT    310.61     0  05:31      0.83    0.13    0.48
  WS02004412WS02004413 CONDUIT    311.10     0  05:30      0.73    0.21    0.64
  WS02004410WS02004411 CONDUIT    313.81     0  05:29      0.76    0.43    0.52
  WS02004409WS02004410 CONDUIT    315.94     0  05:28      0.82    0.41    0.50
  WS02004407WS02004409 CONDUIT    318.36     0  05:28      1.29    0.11    0.36
  WS02004406WS02004407 CONDUIT    318.45     0  05:27      0.76    0.14    0.52
  WS02004405WS02004406 CONDUIT    318.70     0  05:27      0.46    0.63    0.82
  WS02004404WS02004405 CONDUIT    318.94     0  05:27      0.47    3.12    0.81
  WS02004403WS02004404 CONDUIT    319.06     0  05:26      0.49    0.23    0.77
  WS02004402WS02004403 CONDUIT    319.65     0  05:26      0.53    0.46    0.72
  WS02004139WS02001211 CONDUIT    182.05     0  04:40      0.41    0.23    0.43
  WS02004138WS02004139 CONDUIT    189.26     0  04:40      1.13    0.04    0.31
  WS02003067WS02003066 CONDUIT    310.64     0  05:31      0.89    0.10    0.35
  WS02001213WS02003059 CONDUIT    182.41     0  04:42      0.43    0.30    0.55
  WS02001212WS02001213 CONDUIT    181.98     0  04:42      1.00    0.28    0.28
  WS02001211WS02001212 CONDUIT    183.44     0  04:41      0.52    0.14    0.46
  WS02003072WS02003073 CONDUIT    424.38     0  05:34      1.31    0.92    0.33
  WS02003069WS02003072 CONDUIT    424.46     0  05:33      1.26    0.20    0.34
  WS02003060WS02003069 CONDUIT    424.25     0  05:33      1.54    0.17    0.29
  WS02003059WS02003060 CONDUIT    183.74     0  04:43      0.60    0.12    0.46
  HS02004901HS02004770 CONDUIT      7.70     0  02:16      0.04    0.03    0.29
  HS02004876HS02004881 CONDUIT     25.59     0  02:19      0.46    0.27    0.08
  HS02004870HS02004876 CONDUIT     20.26     0  02:19      0.32    0.01    0.09
  HS02004842HS02004848 CONDUIT      4.23     0  02:30      0.02    0.00    0.27
  HS02004837HS02004842 CONDUIT      4.49     0  00:03      0.42    0.00    0.28
  HS02004830HS02004837 CONDUIT     19.71     0  02:17      0.41    0.02    0.07
  HS02004824HS02004830 CONDUIT     19.86     0  02:19      0.45    0.03    0.06
  HS02004817HS02004824 CONDUIT     30.33     0  02:21      0.17    0.01    0.38
  HS02004770HS02004777 CONDUIT     39.36     0  02:16      0.19    0.07    0.30
  HS02004799HS02004480 CONDUIT     97.38     0  02:18      0.51    0.12    0.27
  HS02004792HS02004799 CONDUIT     89.05     0  02:17      0.59    0.05    0.21
  HS02004788HS02004792 CONDUIT     51.81     0  02:19      0.75    0.03    0.10
  HS02004785HS02004788 CONDUIT     38.75     0  02:19      0.45    0.29    0.12
  HS02004777HS02004785 CONDUIT     38.77     0  02:17      0.23    0.05    0.24
  HS02004480HS02004478 CONDUIT    114.91     0  02:19      0.85    0.48    0.19
  HS02004479HS02004480 CONDUIT     17.91     0  02:21      0.15    0.02    0.27
  HS02004862HS02004870 CONDUIT     14.63     0  02:20      0.41    0.02    0.05
  HS02004848HS02004852 CONDUIT      5.64     0  02:19      0.27    0.01    0.03
  HS02004856HS02004862 CONDUIT      9.78     0  02:20      0.30    0.01    0.05
  HS02004852HS02004856 CONDUIT      5.60     0  02:20      0.09    0.01    0.08
  HS02004802HS02004478 CONDUIT     41.58     0  02:22      0.26    0.04    0.23
  HS02004478WS02006287 CONDUIT    155.83     0  02:20      1.16    0.04    0.15
  HS02004817HS02004807 CONDUIT     31.24     0  02:23      0.09    0.02    0.48
  HS02004807HS02004802 CONDUIT     41.37     0  02:21      0.22    0.08    0.27
  YS02001759YS02001757 CONDUIT    141.94     0  03:25      0.18    0.10    1.00
  YS02001762YS02001759 CONDUIT     84.45     0  03:25      0.17    0.10    1.00
  YS02001765YS02001762 CONDUIT     90.59     0  03:26      0.22    0.08    1.00
  YS02001770YS02001767 CONDUIT    106.27     0  03:51      0.33    0.42    1.00
  YS02001774YS02001770 CONDUIT     75.15     0  03:48      0.13    0.05    1.00
  YS02001779YS02001774 CONDUIT     70.15     0  03:50      0.10    0.04    1.00
  YS02001649YS02001757 CONDUIT    209.99     0  03:31      0.27    0.13    1.00
  YS02001767YS02001765 CONDUIT     85.60     0  02:50      0.26    0.11    1.00
  YS02006561YS02001783 CONDUIT    218.64     0  02:52      1.62    0.11    0.47
  YS02001783YS02001784 CONDUIT    247.70     0  03:08      1.10    0.34    0.76
  YS02001784YS02001785 CONDUIT    256.98     0  03:10      1.15    0.60    0.82
  YS02001788YS02001790 CONDUIT    275.07     0  03:09      1.71    0.20    0.93
  YS02001790YS02001791 CONDUIT    285.59     0  05:07      2.00    0.31    1.00
  YS02001791YS02001793 CONDUIT    322.55     0  05:07      3.93    0.14    1.00
  YS02001910YS02001907 CONDUIT     67.40     0  03:01      0.49    0.04    0.66
  YS02001786YS02001788 CONDUIT    286.30     0  03:10      1.57    0.55    0.85
  YS02001915YS02001910 CONDUIT     67.29     0  03:00      0.44    0.03    0.45
  YS02001918YS02001915 CONDUIT     23.05     0  03:03      0.44    0.01    0.21
  YS02001923YS02001920 CONDUIT     20.20     0  03:02      0.37    0.01    0.12
  YS02001926YS02001923 CONDUIT     20.17     0  03:02      0.42    0.03    0.11
  YS02001929YS02001926 CONDUIT     20.16     0  03:01      0.44    0.01    0.11
  YS02001920YS02001918 CONDUIT     23.06     0  03:03      0.39    0.02    0.13
  YS02001629YS02163301 CONDUIT     78.20     0  04:14      0.10    0.10    1.00
  YS02001619YS02001622 CONDUIT     73.22     0  03:53      0.61    0.11    0.92
  YS02001622YS02001625 CONDUIT     73.36     0  04:08      0.21    0.04    0.97
  YS02001625YS02001629 CONDUIT     98.20     0  03:53      0.21    0.05    0.95
  YS02163301YS02001633 CONDUIT     70.26     0  03:52      0.10    0.07    1.00
  YS02163601YS02164001 CONDUIT    111.81     0  03:49      0.14    0.10    1.00
  YS02164001YS02001641 CONDUIT    108.67     0  03:49      0.14    0.15    1.00
  YS02001641YS02001644 CONDUIT    104.93     0  03:52      0.14    0.34    1.00
  YS02001647YS02001649 CONDUIT    184.11     0  03:48      0.24    0.10    1.00
  YS02006553YS02006556 CONDUIT    148.95     0  02:55      0.24    0.13    0.74
  YS02006556YS02006558 CONDUIT    148.96     0  02:55      0.23    0.12    0.77
  YSB6556YSB1171       CONDUIT      9.63     0  02:21      0.05    0.01    0.54
  YS02001907YS02006553 CONDUIT    148.88     0  02:54      0.20    0.18    0.85
  YS02006558YS02006561 CONDUIT    218.65     0  02:52      2.09    0.48    0.40
  YS02001633YS02163601 CONDUIT    112.07     0  03:49      0.14    0.12    1.00
  YS02001644YS02001647 CONDUIT    133.64     0  02:54      0.22    0.08    1.00
  YS02001745YS02001748 CONDUIT     95.39     0  05:38      1.29    0.04    0.49
  YS02001748YS02001751 CONDUIT    151.92     0  03:33      1.01    0.08    0.85
  YS02001751YS02001754 CONDUIT     85.04     0  02:53      0.92    0.04    0.98
  YS02001754YS02001757 CONDUIT    132.79     0  03:27      0.33    0.05    1.00
  YS02001882YS02001884 CONDUIT      3.20     0  02:10      0.06    0.00    0.39
  YS02001884YS02001887 CONDUIT      9.28     0  02:10      0.06    0.01    0.48
  YS02001890YS02001895 CONDUIT     83.06     0  02:46      0.24    0.04    0.45
  YS02001895YS02001898 CONDUIT     82.99     0  02:47      0.47    0.14    0.31
  YS02001898YS02001901 CONDUIT     83.01     0  02:47      0.29    0.05    0.39
  YS02001901YS02001904 CONDUIT     82.63     0  02:48      0.25    0.13    0.44
  YS02001904YS02001907 CONDUIT     82.81     0  02:48      0.17    0.03    0.60
  YS02001887YS02001890 CONDUIT     83.37     0  02:44      0.20    0.14    0.53
  YS02001652YS02001649 CONDUIT    131.99     0  03:31      0.32    0.07    1.00
  YS02001655YS02001652 CONDUIT     77.63     0  03:03      1.00    0.04    0.99
  YS02001658YS02001655 CONDUIT    144.01     0  03:43      1.16    0.06    0.84
  YS02001661YS02001658 CONDUIT     58.99     0  02:43      1.30    0.02    0.52
  YS02001664YS02001661 CONDUIT     58.99     0  02:43      0.93    0.02    0.24
  YSB1154YSB6556       CONDUIT      9.52     0  02:18      0.19    0.02    0.43
  YSB1174YSB1171       CONDUIT      9.08     0  02:12      0.05    0.01    0.54
  YSB1171HS02004479    CONDUIT     17.76     0  02:20      0.54    0.01    0.41
  HS02004881HS02006253 CONDUIT     28.72     0  02:19      1.48    0.01    0.07
  YS02001793JiankangQianchi CONDUIT    438.50     0  04:23      8.95    0.03    1.00
  YS02001757CaochengTiaoxuchi CONDUIT    346.89     0  02:53      0.80    0.15    0.91
  WSF200WS02003060     CONDUIT    310.68     0  05:31      1.80    0.07    0.23
  1                    CONDUIT    425.92     0  05:35      2.62    0.15    0.26
  2                    CONDUIT      0.00     0  00:00      0.00    0.00    0.00
  3                    CONDUIT    458.51     0  05:10      9.64    0.73    0.64
  4                    CONDUIT      0.00     0  00:00      0.00    0.00    0.00
  CC-Pump-1            PUMP       199.98     0  07:10              1.00
  CC-Pump-2            PUMP       200.00     0  07:20              1.00
  JK-Pump-1            PUMP       300.00     0  05:10              1.00
  JK-Pump-2            PUMP       299.97     0  05:10              1.00
  XR-Pump-1            PUMP        95.00     0  01:10              1.00
  XR-Pump-2            PUMP         0.00     0  00:00              0.00
  XR-Pump-3            PUMP        94.82     0  05:50              1.00
  XR-Pump-4            PUMP        95.00     0  06:10              1.00
  
  
  ***************************
  Flow Classification Summary
  ***************************
  
  -------------------------------------------------------------------------------------
                      Adjusted    ---------- Fraction of Time in Flow Class ---------- 
                       /Actual         Up    Down  Sub   Sup   Up    Down  Norm  Inlet 
  Conduit               Length    Dry  Dry   Dry   Crit  Crit  Crit  Crit  Ltd   Ctrl  
  -------------------------------------------------------------------------------------
  WS02003066WSF200        1.00   0.13  0.00  0.00  0.00  0.87  0.00  0.00  0.70  0.00
  WS02006287WS02006284    1.00   0.03  0.03  0.00  0.76  0.18  0.00  0.00  0.79  0.00
  WS02006284WS02006280    1.00   0.04  0.00  0.00  0.00  0.00  0.00  0.96  0.00  0.00
  WS02006280WS02006229    1.00   0.04  0.00  0.00  0.00  0.00  0.00  0.96  0.00  0.00
  WS02006229WS02006228    1.00   0.00  0.00  0.00  1.00  0.00  0.00  0.00  0.00  0.00
  WS02006256WS02006235    1.00   0.07  0.00  0.00  0.93  0.01  0.00  0.00  0.00  0.00
  WS02006253WS02006251    1.00   0.02  0.02  0.00  0.96  0.00  0.01  0.00  0.00  0.00
  WS02006252WS02006251    1.00   0.14  0.00  0.00  0.00  0.00  0.86  0.00  0.00  0.00
  WS02006251WS02006249    1.00   0.00  0.00  0.00  1.00  0.00  0.00  0.00  0.65  0.00
  WS02006249WS02006248    1.00   0.00  0.01  0.00  0.58  0.00  0.42  0.00  0.00  0.00
  WS02006248WS02006247    1.00   0.01  0.00  0.00  0.97  0.00  0.00  0.02  0.56  0.00
  WS02006247WS02006245    1.00   0.01  0.00  0.00  0.94  0.00  0.00  0.06  0.00  0.00
  WS02006245WS02006243    1.00   0.01  0.00  0.00  0.86  0.00  0.00  0.13  0.03  0.00
  WS02006243WS02006242    1.00   0.01  0.00  0.00  0.95  0.00  0.00  0.04  0.39  0.00
  WS02006242WS02006240    1.00   0.02  0.04  0.00  0.94  0.00  0.01  0.00  0.00  0.00
  WS02006240WS02006239    1.00   0.06  0.00  0.00  0.85  0.00  0.00  0.09  0.03  0.00
  WS02006239WS02006238    1.00   0.06  0.00  0.00  0.93  0.00  0.00  0.01  0.05  0.00
  WS02006238WS02006235    1.00   0.06  0.01  0.00  0.93  0.00  0.00  0.00  0.00  0.00
  WS02006235WS02006234    1.00   0.07  0.00  0.00  0.90  0.00  0.04  0.00  0.00  0.00
  WS02006234WS02006232    1.00   0.07  0.00  0.00  0.93  0.00  0.00  0.00  0.01  0.00
  WS02006232WS02006231    1.00   0.07  0.00  0.00  0.92  0.00  0.01  0.00  0.00  0.00
  WS02006231WS02006230    1.00   0.07  0.00  0.00  0.11  0.00  0.82  0.00  0.00  0.00
  WS02006230WS02006229    1.00   0.00  0.00  0.00  0.99  0.00  0.00  0.01  0.01  0.00
  WS02006228WS02006109    1.00   0.00  0.00  0.00  1.00  0.00  0.00  0.00  0.01  0.00
  WS02006116WS02004401    1.00   0.03  0.00  0.00  0.97  0.00  0.00  0.00  0.01  0.00
  WS02006115WS02006116    1.00   0.03  0.00  0.00  0.93  0.00  0.00  0.04  0.00  0.00
  WS02006113WS02006111    1.00   0.02  0.00  0.00  0.01  0.97  0.00  0.00  0.17  0.00
  WS02006112WS02006115    1.00   0.02  0.01  0.00  0.96  0.00  0.00  0.00  0.00  0.00
  WS02006111WS02006112    1.00   0.02  0.00  0.00  0.97  0.00  0.00  0.00  0.92  0.00
  WS02006110WS02006113    1.00   0.00  0.02  0.00  0.98  0.00  0.00  0.00  0.00  0.00
  WS02006109WS02006110    1.00   0.00  0.00  0.00  0.99  0.00  0.00  0.00  0.00  0.00
  WS02004411WS02004412    1.00   0.11  0.00  0.00  0.89  0.00  0.00  0.00  0.00  0.00
  WS02004401WS02004402    1.00   0.03  0.00  0.00  0.97  0.00  0.00  0.00  0.04  0.00
  WS02004413WS02003067    1.00   0.11  0.01  0.00  0.00  0.00  0.88  0.00  0.00  0.00
  WS02004412WS02004413    1.00   0.11  0.00  0.00  0.89  0.00  0.00  0.00  0.01  0.00
  WS02004410WS02004411    1.00   0.11  0.00  0.00  0.89  0.00  0.00  0.00  0.00  0.00
  WS02004409WS02004410    1.00   0.11  0.00  0.00  0.89  0.00  0.00  0.00  0.00  0.00
  WS02004407WS02004409    1.00   0.11  0.00  0.00  0.89  0.00  0.00  0.00  0.75  0.00
  WS02004406WS02004407    1.00   0.00  0.11  0.00  0.89  0.00  0.00  0.00  0.00  0.00
  WS02004405WS02004406    1.00   0.00  0.00  0.00  1.00  0.00  0.00  0.00  0.04  0.00
  WS02004404WS02004405    1.00   0.00  0.00  0.00  1.00  0.00  0.00  0.00  0.00  0.00
  WS02004403WS02004404    1.00   0.00  0.04  0.00  0.96  0.00  0.00  0.00  0.04  0.00
  WS02004402WS02004403    1.00   0.04  0.00  0.00  0.96  0.00  0.00  0.00  0.00  0.00
  WS02004139WS02001211    1.00   0.00  0.00  0.00  1.00  0.00  0.00  0.00  0.00  0.00
  WS02004138WS02004139    1.00   0.01  0.01  0.00  0.98  0.00  0.00  0.00  0.96  0.00
  WS02003067WS02003066    1.00   0.12  0.00  0.00  0.87  0.00  0.00  0.00  0.00  0.00
  WS02001213WS02003059    1.00   0.00  0.00  0.00  1.00  0.00  0.00  0.00  0.00  0.00
  WS02001212WS02001213    1.00   0.01  0.00  0.00  0.26  0.00  0.72  0.00  0.00  0.00
  WS02001211WS02001212    1.00   0.00  0.01  0.00  0.99  0.00  0.00  0.00  0.00  0.00
  WS02003072WS02003073    1.00   0.00  0.00  0.00  0.00  0.00  0.00  1.00  0.00  0.00
  WS02003069WS02003072    1.00   0.00  0.00  0.00  1.00  0.00  0.00  0.00  0.92  0.00
  WS02003060WS02003069    1.00   0.00  0.00  0.00  0.97  0.03  0.00  0.00  0.56  0.00
  WS02003059WS02003060    1.00   0.00  0.00  0.00  1.00  0.00  0.00  0.00  0.06  0.00
  HS02004901HS02004770    1.00   0.04  0.00  0.00  0.96  0.00  0.00  0.00  0.03  0.00
  HS02004876HS02004881    1.00   0.01  0.00  0.00  0.99  0.00  0.00  0.00  0.00  0.00
  HS02004870HS02004876    1.00   0.00  0.00  0.00  1.00  0.00  0.00  0.00  0.95  0.00
  HS02004842HS02004848    1.00   0.00  0.04  0.00  0.96  0.00  0.00  0.00  0.70  0.00
  HS02004837HS02004842    1.00   0.00  0.00  0.00  1.00  0.00  0.00  0.00  0.11  0.00
  HS02004830HS02004837    1.00   0.00  0.00  0.00  1.00  0.00  0.00  0.00  0.99  0.00
  HS02004824HS02004830    1.00   0.00  0.00  0.00  1.00  0.00  0.00  0.00  0.00  0.00
  HS02004817HS02004824    1.00   0.00  0.00  0.00  1.00  0.00  0.00  0.00  1.00  0.00
  HS02004770HS02004777    1.00   0.00  0.04  0.00  0.96  0.00  0.00  0.00  0.08  0.00
  HS02004799HS02004480    1.00   0.00  0.01  0.00  0.94  0.00  0.05  0.00  0.00  0.00
  HS02004792HS02004799    1.00   0.00  0.00  0.00  1.00  0.00  0.00  0.00  0.98  0.00
  HS02004788HS02004792    1.00   0.00  0.00  0.00  1.00  0.00  0.00  0.00  0.98  0.00
  HS02004785HS02004788    1.00   0.00  0.00  0.00  1.00  0.00  0.00  0.00  0.00  0.00
  HS02004777HS02004785    1.00   0.00  0.00  0.00  1.00  0.00  0.00  0.00  0.21  0.00
  HS02004480HS02004478    1.00   0.05  0.00  0.00  0.78  0.00  0.00  0.17  0.00  0.00
  HS02004479HS02004480    1.00   0.01  0.00  0.00  0.99  0.00  0.00  0.00  0.16  0.00
  HS02004862HS02004870    1.00   0.00  0.00  0.00  1.00  0.00  0.00  0.00  0.05  0.00
  HS02004848HS02004852    1.00   0.04  0.00  0.00  0.96  0.00  0.00  0.00  0.70  0.00
  HS02004856HS02004862    1.00   0.00  0.12  0.00  0.88  0.00  0.00  0.00  0.74  0.00
  HS02004852HS02004856    1.00   0.04  0.01  0.00  0.95  0.00  0.00  0.00  0.82  0.00
  HS02004802HS02004478    1.00   0.04  0.01  0.00  0.95  0.00  0.00  0.00  0.00  0.00
  HS02004478WS02006287    1.00   0.06  0.00  0.00  0.92  0.02  0.00  0.00  0.81  0.00
  HS02004817HS02004807    1.00   0.00  0.04  0.00  0.96  0.00  0.00  0.00  0.00  0.00
  HS02004807HS02004802    1.00   0.04  0.00  0.00  0.95  0.00  0.00  0.00  0.01  0.00
  YS02001759YS02001757    1.00   0.00  0.00  0.00  1.00  0.00  0.00  0.00  0.17  0.00
  YS02001762YS02001759    1.00   0.00  0.00  0.00  1.00  0.00  0.00  0.00  0.05  0.00
  YS02001765YS02001762    1.00   0.00  0.00  0.00  1.00  0.00  0.00  0.00  0.23  0.00
  YS02001770YS02001767    1.00   0.00  0.00  0.00  1.00  0.00  0.00  0.00  0.00  0.00
  YS02001774YS02001770    1.00   0.00  0.06  0.00  0.94  0.00  0.00  0.00  0.07  0.00
  YS02001779YS02001774    1.00   0.00  0.00  0.00  1.00  0.00  0.00  0.00  0.27  0.00
  YS02001649YS02001757    1.00   0.00  0.00  0.00  1.00  0.00  0.00  0.00  0.19  0.00
  YS02001767YS02001765    1.00   0.00  0.00  0.00  1.00  0.00  0.00  0.00  0.01  0.00
  YS02006561YS02001783    1.00   0.12  0.00  0.00  0.11  0.77  0.00  0.00  0.73  0.00
  YS02001783YS02001784    1.00   0.00  0.12  0.00  0.88  0.00  0.00  0.00  0.03  0.00
  YS02001784YS02001785    1.00   0.00  0.00  0.00  1.00  0.00  0.00  0.00  0.26  0.00
  YS02001788YS02001790    1.00   0.00  0.00  0.00  0.29  0.71  0.00  0.00  0.74  0.00
  YS02001790YS02001791    1.00   0.00  0.00  0.00  0.20  0.80  0.00  0.00  0.25  0.00
  YS02001791YS02001793    1.00   0.00  0.00  0.00  0.30  0.70  0.00  0.00  0.07  0.00
  YS02001910YS02001907    1.00   0.00  0.00  0.00  0.99  0.00  0.00  0.01  0.13  0.00
  YS02001786YS02001788    1.00   0.00  0.00  0.00  0.26  0.74  0.00  0.00  0.00  0.00
  YS02001915YS02001910    1.00   0.00  0.00  0.00  1.00  0.00  0.00  0.00  0.25  0.00
  YS02001918YS02001915    1.00   0.00  0.00  0.00  0.99  0.00  0.00  0.00  0.81  0.00
  YS02001923YS02001920    1.00   0.00  0.00  0.00  1.00  0.00  0.00  0.00  1.00  0.00
  YS02001926YS02001923    1.00   0.00  0.02  0.00  0.00  0.00  0.98  0.00  0.00  0.00
  YS02001929YS02001926    1.00   0.00  0.04  0.00  0.96  0.00  0.00  0.00  0.86  0.00
  YS02001920YS02001918    1.00   0.00  0.00  0.00  1.00  0.00  0.00  0.00  0.00  0.00
  YS02001629YS02163301    1.00   0.10  0.01  0.00  0.89  0.00  0.00  0.00  0.00  0.00
  YS02001619YS02001622    1.00   0.04  0.00  0.00  0.96  0.00  0.00  0.00  0.00  0.00
  YS02001622YS02001625    1.00   0.04  0.00  0.00  0.96  0.00  0.00  0.00  0.13  0.00
  YS02001625YS02001629    1.00   0.04  0.08  0.00  0.86  0.00  0.02  0.00  0.00  0.00
  YS02163301YS02001633    1.00   0.00  0.10  0.00  0.90  0.00  0.00  0.00  0.00  0.00
  YS02163601YS02164001    1.00   0.00  0.03  0.00  0.97  0.00  0.00  0.00  0.00  0.00
  YS02164001YS02001641    1.00   0.00  0.02  0.00  0.97  0.00  0.00  0.00  0.07  0.00
  YS02001641YS02001644    1.00   0.00  0.00  0.00  1.00  0.00  0.00  0.00  0.00  0.00
  YS02001647YS02001649    1.00   0.00  0.12  0.00  0.88  0.00  0.00  0.00  0.01  0.00
  YS02006553YS02006556    1.00   0.00  0.00  0.00  1.00  0.00  0.00  0.00  0.03  0.00
  YS02006556YS02006558    1.00   0.00  0.00  0.00  1.00  0.00  0.00  0.00  0.00  0.00
  YSB6556YSB1171          1.00   0.01  0.03  0.00  0.96  0.00  0.00  0.00  0.00  0.00
  YS02001907YS02006553    1.00   0.00  0.01  0.00  0.99  0.00  0.00  0.00  0.00  0.00
  YS02006558YS02006561    1.00   0.12  0.00  0.00  0.00  0.88  0.00  0.00  0.72  0.00
  YS02001633YS02163601    1.00   0.00  0.00  0.00  1.00  0.00  0.00  0.00  0.20  0.00
  YS02001644YS02001647    1.00   0.00  0.12  0.00  0.88  0.00  0.00  0.00  0.00  0.00
  YS02001745YS02001748    1.00   0.00  0.00  0.00  0.73  0.02  0.00  0.24  0.23  0.00
  YS02001748YS02001751    1.00   0.00  0.00  0.00  0.96  0.04  0.00  0.00  0.26  0.00
  YS02001751YS02001754    1.00   0.00  0.00  0.00  0.87  0.00  0.00  0.12  0.02  0.00
  YS02001754YS02001757    1.00   0.00  0.00  0.00  1.00  0.00  0.00  0.00  0.27  0.00
  YS02001882YS02001884    1.00   0.07  0.04  0.00  0.90  0.00  0.00  0.00  0.00  0.00
  YS02001884YS02001887    1.00   0.02  0.02  0.00  0.96  0.00  0.00  0.00  0.00  0.00
  YS02001890YS02001895    1.00   0.00  0.11  0.00  0.89  0.00  0.00  0.00  0.00  0.00
  YS02001895YS02001898    1.00   0.11  0.00  0.00  0.88  0.00  0.01  0.00  0.00  0.00
  YS02001898YS02001901    1.00   0.09  0.02  0.00  0.89  0.00  0.00  0.00  0.02  0.00
  YS02001901YS02001904    1.00   0.09  0.00  0.00  0.91  0.00  0.00  0.00  0.00  0.00
  YS02001904YS02001907    1.00   0.00  0.09  0.00  0.91  0.00  0.00  0.00  0.00  0.00
  YS02001887YS02001890    1.00   0.00  0.00  0.00  0.99  0.00  0.01  0.00  0.00  0.00
  YS02001652YS02001649    1.00   0.00  0.00  0.00  1.00  0.00  0.00  0.00  0.26  0.00
  YS02001655YS02001652    1.00   0.00  0.00  0.00  0.87  0.00  0.00  0.12  0.02  0.00
  YS02001658YS02001655    1.00   0.00  0.06  0.00  0.87  0.07  0.00  0.00  0.16  0.00
  YS02001661YS02001658    1.00   0.06  0.00  0.00  0.74  0.20  0.00  0.00  0.29  0.00
  YS02001664YS02001661    1.00   0.04  0.00  0.00  0.96  0.00  0.00  0.00  0.86  0.00
  YSB1154YSB6556          1.00   0.04  0.00  0.00  0.96  0.00  0.00  0.00  0.02  0.00
  YSB1174YSB1171          1.00   0.02  0.01  0.00  0.97  0.00  0.00  0.00  0.00  0.00
  YSB1171HS02004479       1.00   0.01  0.00  0.00  0.98  0.00  0.00  0.00  0.13  0.00
  HS02004881HS02006253    1.00   0.02  0.00  0.00  0.30  0.03  0.00  0.66  0.15  0.00
  YS02001793JiankangQianchi    1.00   0.00  0.00  0.00  0.77  0.23  0.00  0.00  0.56  0.00
  YS02001757CaochengTiaoxuchi    1.00   0.00  0.14  0.00  0.86  0.00  0.00  0.00  0.00  0.00
  WSF200WS02003060        1.00   0.00  0.13  0.00  0.39  0.48  0.00  0.00  0.42  0.00
  1                       1.00   0.00  0.00  0.00  0.00  1.00  0.00  0.00  0.28  0.00
  2                       1.00   1.00  0.00  0.00  0.00  0.00  0.00  0.00  0.00  0.00
  3                       1.00   0.55  0.00  0.00  0.00  0.45  0.00  0.00  0.06  0.00
  4                       1.00   1.00  0.00  0.00  0.00  0.00  0.00  0.00  0.00  0.00
  
  
  *************************
  Conduit Surcharge Summary
  *************************
  
  ----------------------------------------------------------------------------
                                                           Hours        Hours 
                         --------- Hours Full --------   Above Full   Capacity
  Conduit                Both Ends  Upstream  Dnstream   Normal Flow   Limited
  ----------------------------------------------------------------------------
  WS02006229WS02006228        0.01      0.01      0.01      0.33         0.01
  WS02006256WS02006235        3.15      3.16      5.85      1.93         0.01
  WS02006249WS02006248        0.01      0.01      0.01      0.68         0.01
  WS02006247WS02006245        0.01      0.01      0.01      1.28         0.01
  WS02006235WS02006234        0.01      0.01      0.01      3.11         0.01
  WS02006231WS02006230        0.01      0.01      0.01      3.37         0.01
  WS02006230WS02006229        0.01      0.13      0.01      3.94         0.01
  WS02006228WS02006109        0.01      0.01      0.01      1.56         0.01
  WS02006111WS02006112        0.01      0.01      0.44      0.01         0.01
  WS02004404WS02004405        0.01      0.01      0.01      3.51         0.01
  YS02001759YS02001757        4.39      4.39      4.90      0.01         0.01
  YS02001762YS02001759        4.25      4.25      4.39      0.01         0.01
  YS02001765YS02001762        3.98      3.98      4.25      0.01         0.01
  YS02001770YS02001767        3.71      3.72      3.76      0.01         0.21
  YS02001774YS02001770        3.46      3.46      4.17      0.01         0.01
  YS02001779YS02001774        2.11      2.11      4.17      0.01         0.01
  YS02001649YS02001757        4.29      4.29      4.90      0.01         0.01
  YS02001767YS02001765        3.76      3.76      3.98      0.01         0.01
  YS02001788YS02001790        0.01      0.01      0.98      0.01         0.01
  YS02001790YS02001791        0.98      0.98      1.16      0.01         0.01
  YS02001791YS02001793        1.16      1.16      1.66      0.01         0.01
  YS02001629YS02163301        3.35      3.35      3.49      0.01         0.01
  YS02001622YS02001625        0.01      0.01      3.08      0.01         0.01
  YS02001625YS02001629        0.01      0.01      3.08      0.01         0.01
  YS02163301YS02001633        3.49      3.49      3.99      0.01         0.01
  YS02163601YS02164001        3.94      3.94      4.27      0.01         0.01
  YS02164001YS02001641        3.94      3.94      4.07      0.01         0.01
  YS02001641YS02001644        4.05      4.07      4.07      0.01         0.24
  YS02001647YS02001649        3.05      3.05      4.29      0.01         0.01
  YS02001633YS02163601        3.82      3.82      4.27      0.01         0.01
  YS02001644YS02001647        3.05      3.05      4.07      0.01         0.01
  YS02001751YS02001754        0.01      0.01      2.54      0.01         0.01
  YS02001754YS02001757        3.06      3.06      4.90      0.01         0.01
  YS02001652YS02001649        3.13      3.13      4.29      0.01         0.01
  YS02001655YS02001652        0.01      0.01      2.97      0.01         0.01
  YS02001793JiankangQianchi        1.46      1.46      5.93      0.01         0.01
  YS02001757CaochengTiaoxuchi        0.01      0.01      4.90      0.01         0.01
  
  
  ***************
  Pumping Summary
  ***************
  
  ---------------------------------------------------------------------------------------------------------
                                                  Min       Avg       Max     Total     Power    % Time Off
                        Percent   Number of      Flow      Flow      Flow    Volume     Usage    Pump Curve
  Pump                 Utilized   Start-Ups       LPS       LPS       LPS  10^6 ltr     Kw-hr    Low   High
  ---------------------------------------------------------------------------------------------------------
  CC-Pump-1               12.76           3      0.00    103.67    199.98     0.360      1.02    0.0   33.3
  CC-Pump-2               24.90           5      0.00    114.08    200.00     0.737      1.81    0.0    6.1
  JK-Pump-1               36.13           7      0.00    156.12    300.00     1.254     16.49    0.0    0.0
  JK-Pump-2               25.51           6      0.00    132.08    299.97     0.781      7.66    0.0    0.0
  XR-Pump-1               74.43          11      0.00     57.52     95.00     1.226      5.45    0.0    0.0
  XR-Pump-2                0.00           0      0.00      0.00      0.00     0.000      0.00    0.0    0.0
  XR-Pump-3                4.25           1      0.00     46.96     94.82     0.057      0.25    0.0    0.0
  XR-Pump-4               36.14           7      0.00     53.21     95.00     0.513      2.31    0.0    0.0
  

  Analysis begun on:  Wed Jan  5 21:59:28 2022
  Analysis ended on:  Wed Jan  5 21:59:29 2022
  Total elapsed time: 00:00:01