
  EPA STORM WATER MANAGEMENT MODEL - VERSION 5.1 (Build 5.3.0.dev0)
  --------------------------------------------------------------

  WARNING 04: minimum elevation drop used for Conduit WS02004404WS02004405
  WARNING 03: negative offset ignored for Link YS02001904YS02001907
  
  *********************************************************
  NOTE: The summary statistics displayed in this report are
  based on results found at every computational time step,  
  not just on results from each reporting time step.
  *********************************************************
  
  ****************
  Analysis Options
  ****************
  Flow Units ............... LPS
  Process Models:
    Rainfall/Runoff ........ YES
    RDII ................... NO
    Snowmelt ............... NO
    Groundwater ............ NO
    Flow Routing ........... YES
    Ponding Allowed ........ NO
    Water Quality .......... NO
  Infiltration Method ...... HORTON
  Flow Routing Method ...... DYNWAVE
  Surcharge Method ......... EXTRAN
  Starting Date ............ 08/28/2015 08:00:00
  Ending Date .............. 08/28/2015 15:50:00
  Antecedent Dry Days ...... 8.0
  Report Time Step ......... 00:01:00
  Wet Time Step ............ 00:01:00
  Dry Time Step ............ 00:01:00
  Routing Time Step ........ 5.00 sec
  Variable Time Step ....... YES
  Maximum Trials ........... 8
  Number of Threads ........ 4
  Head Tolerance ........... 0.001500 m
  
  
  **************************        Volume         Depth
  Runoff Quantity Continuity     hectare-m            mm
  **************************     ---------       -------
  Total Precipitation ......         2.016         4.413
  Evaporation Loss .........         0.000         0.000
  Infiltration Loss ........         0.499         1.092
  Surface Runoff ...........         0.702         1.536
  Final Storage ............         0.816         1.786
  Continuity Error (%) .....        -0.017
  
  
  **************************        Volume        Volume
  Flow Routing Continuity        hectare-m      10^6 ltr
  **************************     ---------     ---------
  Dry Weather Inflow .......         0.616         6.165
  Wet Weather Inflow .......         0.701         7.012
  Groundwater Inflow .......         0.000         0.000
  RDII Inflow ..............         0.000         0.000
  External Inflow ..........         0.102         1.024
  External Outflow .........         0.750         7.495
  Flooding Loss ............         0.355         3.550
  Evaporation Loss .........         0.000         0.000
  Exfiltration Loss ........         0.000         0.000
  Initial Stored Volume ....         0.076         0.761
  Final Stored Volume ......         0.400         4.005
  Continuity Error (%) .....        -0.592
  
  
  *************************
  Highest Continuity Errors
  *************************
  Node HS02004842 (35.34%)
  Node YS02001884 (29.62%)
  Node YS02001774 (16.51%)
  Node YSB1171 (9.89%)
  Node YS02001625 (8.83%)
  
  
  ***************************
  Time-Step Critical Elements
  ***************************
  Link WS02006252WS02006251 (51.89%)
  Link 3 (30.89%)
  Link WS02006280WS02006229 (5.81%)
  Link WS02006238WS02006235 (3.50%)
  Link WS02003066WSF200 (1.77%)
  
  
  ********************************
  Highest Flow Instability Indexes
  ********************************
  Link WS02006113WS02006111 (43)
  Link WS02006111WS02006112 (11)
  Link YS02001767YS02001765 (4)
  Link YS02001629YS02163301 (4)
  Link YS02001759YS02001757 (4)
  
  
  *************************
  Routing Time Step Summary
  *************************
  Minimum Time Step           :     0.50 sec
  Average Time Step           :     1.38 sec
  Maximum Time Step           :     5.00 sec
  Percent in Steady State     :    -0.00
  Average Iterations per Step :     2.13
  Percent Not Converging      :     0.92
  
  
  ***************************
  Subcatchment Runoff Summary
  ***************************
  
  ------------------------------------------------------------------------------------------------------------------------------
                            Total      Total      Total      Total     Imperv       Perv      Total       Total     Peak  Runoff
                           Precip      Runon       Evap      Infil     Runoff     Runoff     Runoff      Runoff   Runoff   Coeff
  Subcatchment                 mm         mm         mm         mm         mm         mm         mm    10^6 ltr      LPS
  ------------------------------------------------------------------------------------------------------------------------------
  sub0                       4.41       0.00       0.00       0.31       2.84       0.00       2.84        0.00     0.86   0.643
  sub1                       4.41       0.00       0.00       0.49       2.67       0.00       2.67        0.02     4.39   0.606
  sub2                       4.41       0.00       0.00       1.63       1.88       0.00       1.88        0.02     3.87   0.425
  sub3                       4.41       0.00       0.00       1.63       1.84       0.00       1.84        0.04     7.93   0.418
  sub4                       4.41       0.00       0.00       0.49       2.55       0.00       2.55        0.05     8.86   0.577
  sub5                       4.41       0.00       0.00       0.31       2.79       0.00       2.79        0.03     7.80   0.633
  sub7                       4.41       0.00       0.00       0.40       2.76       0.00       2.76        0.01     2.77   0.626
  sub8                       4.41       0.00       0.00       0.40       2.75       0.00       2.75        0.02     4.88   0.624
  sub9                       4.41       0.00       0.00       0.40       2.75       0.00       2.75        0.01     3.61   0.623
  sub10                      4.41       0.00       0.00       0.35       2.77       0.00       2.77        0.03     7.80   0.628
  sub11                      4.41       0.00       0.00       0.35       2.79       0.00       2.79        0.03     9.19   0.631
  sub12                      4.41       0.00       0.00       0.57       2.65       0.00       2.65        0.02     7.85   0.601
  sub14                      4.41       0.00       0.00       0.40       2.75       0.00       2.75        0.03     7.06   0.623
  sub15                      4.41       0.00       0.00       1.32       2.11       0.00       2.11        0.04     9.57   0.479
  sub16                      4.41       0.00       0.00       1.46       2.04       0.00       2.04        0.02     6.88   0.462
  sub17                      4.41       0.00       0.00       1.41       2.07       0.00       2.07        0.02     5.55   0.468
  sub22                      4.41       0.00       0.00       1.90       1.73       0.00       1.73        0.11    31.46   0.391
  sub23                      4.41       0.00       0.00       1.63       1.91       0.00       1.91        0.09    26.82   0.433
  sub60                      4.41       0.00       0.00       0.53       1.68       0.00       1.68        0.51    44.03   0.380
  sub61                      4.41       0.00       0.00       0.75       1.84       0.00       1.84        0.57    56.15   0.418
  sub62                      4.41       0.00       0.00       0.35       1.96       0.00       1.96        0.60    57.26   0.444
  sub63                      4.41       0.00       0.00       1.28       1.66       0.00       1.66        0.50    52.42   0.376
  sub64                      4.41       0.00       0.00       0.66       1.60       0.00       1.60        0.49    41.73   0.363
  sub65                      4.41       0.00       0.00       0.57       1.62       0.00       1.62        0.50    42.26   0.366
  sub66                      4.41       0.00       0.00       1.28       1.41       0.00       1.41        0.43    38.56   0.319
  sub67                      4.41       0.00       0.00       0.35       2.21       0.00       2.21        0.68    73.71   0.501
  sub68                      4.41       0.00       0.00       0.62       1.97       0.00       1.97        0.61    62.09   0.447
  sub69                      4.41       0.00       0.00       0.66       2.19       0.00       2.19        0.51    61.78   0.495
  sub70                      4.41       2.23       0.00       2.26       2.53       0.00       2.53        0.58    46.38   0.381
  sub71                      4.41       0.00       0.00       0.35       1.86       0.00       1.86        0.44    39.73   0.421
  sub72                      4.41       0.00       0.00       0.31       1.24       0.00       1.24        0.25    17.90   0.281
  sub73                      4.41       2.46       0.00       2.34       2.47       0.00       2.47        0.58    39.55   0.360
  sub74                      4.41       0.00       0.00       3.31       0.66       0.00       0.66        0.27    34.51   0.150
  
  
  ******************
  Node Depth Summary
  ******************
  
  ---------------------------------------------------------------------------------
                                 Average  Maximum  Maximum  Time of Max    Reported
                                   Depth    Depth      HGL   Occurrence   Max Depth
  Node                 Type       Meters   Meters   Meters  days hr:min      Meters
  ---------------------------------------------------------------------------------
  WS02001211           JUNCTION     0.51     0.61     5.45     0  05:30        0.61
  WS02001212           JUNCTION     0.26     0.34     5.40     0  05:30        0.34
  WS02001213           JUNCTION     0.45     0.57     5.33     0  03:02        0.57
  WS02003069           JUNCTION     0.28     0.41     4.99     0  03:04        0.41
  WS02003072           JUNCTION     0.35     0.48     4.85     0  03:05        0.48
  WS02003073           JUNCTION     0.20     0.28     4.35     0  03:06        0.28
  WS02003060           JUNCTION     0.25     0.37     5.30     0  03:03        0.37
  WS02003066           JUNCTION     0.16     0.24     5.80     0  05:54        0.24
  WS02003059           JUNCTION     0.51     0.64     5.33     0  03:03        0.64
  WS02003067           JUNCTION     0.44     0.60     5.92     0  05:54        0.60
  WS02004401           JUNCTION     0.51     0.68     6.68     0  05:50        0.68
  WS02004402           JUNCTION     0.54     0.72     6.68     0  05:51        0.72
  WS02004403           JUNCTION     0.57     0.74     6.67     0  05:51        0.74
  WS02004404           JUNCTION     0.64     0.82     6.67     0  05:51        0.82
  WS02004406           JUNCTION     0.66     0.83     6.66     0  05:51        0.83
  WS02004409           JUNCTION     0.31     0.50     6.27     0  05:53        0.50
  WS02004410           JUNCTION     0.34     0.52     6.24     0  05:53        0.52
  WS02004411           JUNCTION     0.36     0.54     6.22     0  05:53        0.54
  WS02004412           JUNCTION     0.38     0.56     6.20     0  05:54        0.56
  WS02004413           JUNCTION     0.54     0.72     6.19     0  05:54        0.72
  WS02004405           JUNCTION     0.64     0.81     6.66     0  05:51        0.81
  WS02006109           JUNCTION     0.57     0.76     7.38     0  05:45        0.76
  WS02006110           JUNCTION     0.58     0.76     7.35     0  05:45        0.76
  WS02006111           JUNCTION     0.15     0.23     6.93     0  05:45        0.23
  WS02006112           JUNCTION     0.65     0.85     6.73     0  05:50        0.85
  WS02006113           JUNCTION     0.22     0.35     7.24     0  05:45        0.35
  WS02006115           JUNCTION     0.39     0.57     6.71     0  05:50        0.57
  WS02006116           JUNCTION     0.47     0.65     6.69     0  05:50        0.65
  WS02006230           JUNCTION     0.48     0.72     7.46     0  05:44        0.72
  WS02006231           JUNCTION     0.30     0.49     7.61     0  05:44        0.49
  WS02006232           JUNCTION     0.42     0.64     7.68     0  05:43        0.64
  WS02006234           JUNCTION     0.32     0.55     7.71     0  05:43        0.55
  WS02006235           JUNCTION     0.35     0.59     7.75     0  05:43        0.59
  WS02006238           JUNCTION     0.37     0.61     7.76     0  05:43        0.61
  WS02006240           JUNCTION     0.27     0.50     7.79     0  05:44        0.50
  WS02006242           JUNCTION     0.32     0.56     7.83     0  05:45        0.56
  WS02006243           JUNCTION     0.21     0.43     7.85     0  05:45        0.43
  WS02006245           JUNCTION     0.20     0.41     7.89     0  05:46        0.41
  WS02006247           JUNCTION     0.22     0.43     7.93     0  05:46        0.43
  WS02006248           JUNCTION     0.19     0.37     7.96     0  02:50        0.37
  WS02006249           JUNCTION     0.22     0.42     8.02     0  02:48        0.42
  WS02006239           JUNCTION     0.32     0.57     7.77     0  05:43        0.57
  WS02006251           JUNCTION     0.21     0.41     8.08     0  02:47        0.41
  WS02006252           JUNCTION     0.19     0.35     8.59     0  05:30        0.35
  WS02006253           JUNCTION     0.24     0.44     8.08     0  02:46        0.44
  WS02006256           JUNCTION     0.78     1.20     8.13     0  05:40        1.20
  WS02004138           JUNCTION     0.10     0.14     7.39     0  05:23        0.14
  WS02004407           JUNCTION     0.14     0.23     6.54     0  05:52        0.23
  WS02006228           JUNCTION     0.55     0.75     7.40     0  05:45        0.75
  WS02006229           JUNCTION     0.51     0.72     7.42     0  05:45        0.72
  WS02006280           JUNCTION     0.05     0.11     8.38     0  02:24        0.11
  WS02006284           JUNCTION     0.33     0.44     8.84     0  02:24        0.44
  WS02006287           JUNCTION     0.07     0.17     9.12     0  02:24        0.17
  WSF200               JUNCTION     0.14     0.23     5.46     0  03:03        0.23
  HS02004901           JUNCTION     0.10     0.19    10.01     0  02:22        0.19
  HS02004881           JUNCTION     0.00     0.02     9.05     0  02:23        0.02
  HS02004876           JUNCTION     0.03     0.09     9.12     0  02:23        0.09
  HS02004870           JUNCTION     0.01     0.03     9.32     0  02:24        0.03
  HS02004862           JUNCTION     0.01     0.03     9.42     0  02:25        0.03
  HS02004856           JUNCTION     0.07     0.09     9.52     0  02:24        0.09
  HS02004852           JUNCTION     0.01     0.02     9.53     0  02:25        0.02
  HS02004848           JUNCTION     0.01     0.02     9.62     0  02:22        0.02
  HS02004842           JUNCTION     0.32     0.35     9.62     0  02:23        0.35
  HS02004837           JUNCTION     0.02     0.04     9.62     0  02:22        0.04
  HS02004830           JUNCTION     0.03     0.05     9.52     0  02:23        0.05
  HS02004824           JUNCTION     0.02     0.03     9.43     0  02:27        0.03
  HS02004817           JUNCTION     0.41     0.49     9.34     0  02:25        0.49
  HS02004807           JUNCTION     0.10     0.17     9.34     0  02:25        0.17
  HS02004802           JUNCTION     0.14     0.20     9.33     0  02:25        0.20
  HS02004799           JUNCTION     0.09     0.20     9.41     0  02:22        0.20
  HS02004792           JUNCTION     0.02     0.07     9.59     0  02:22        0.07
  HS02004788           JUNCTION     0.02     0.05     9.95     0  02:23        0.05
  HS02004785           JUNCTION     0.03     0.10    10.00     0  02:23        0.10
  HS02004777           JUNCTION     0.12     0.21    10.01     0  02:22        0.21
  HS02004770           JUNCTION     0.09     0.18    10.01     0  02:22        0.18
  HS02004480           JUNCTION     0.06     0.15     9.39     0  02:23        0.15
  HS02004479           JUNCTION     0.09     0.19     9.39     0  02:23        0.19
  HS02004478           JUNCTION     0.05     0.10     9.32     0  02:24        0.10
  YS02001745           JUNCTION     0.06     0.09     7.61     0  03:01        0.09
  YS02001748           JUNCTION     0.27     0.50     7.58     0  07:23        0.50
  YS02001751           JUNCTION     0.44     0.70     7.58     0  07:50        0.70
  YS02001754           JUNCTION     0.67     0.97     7.58     0  07:50        0.97
  YS02001762           JUNCTION     0.86     1.18     7.58     0  07:50        1.18
  YS02001765           JUNCTION     0.82     1.13     7.58     0  07:50        1.13
  YS02001767           JUNCTION     0.78     1.09     7.58     0  07:25        1.09
  YS02001770           JUNCTION     0.78     1.08     7.58     0  07:25        1.08
  YS02001774           JUNCTION     0.84     1.16     7.58     0  07:24        1.16
  YS02001779           JUNCTION     0.60     0.89     7.58     0  07:24        0.89
  YS02001882           JUNCTION     0.23     0.35     7.06     0  03:01        0.35
  YS02001884           JUNCTION     0.32     0.45     7.06     0  03:01        0.45
  YS02001759           JUNCTION     0.89     1.22     7.58     0  07:50        1.22
  YS02001887           JUNCTION     0.39     0.53     7.06     0  03:01        0.53
  YS02001890           JUNCTION     0.42     0.56     7.06     0  03:01        0.56
  YS02001898           JUNCTION     0.20     0.31     7.05     0  03:01        0.31
  YS02001901           JUNCTION     0.31     0.44     7.05     0  03:02        0.44
  YS02001904           JUNCTION     0.29     0.41     7.04     0  03:02        0.41
  YS02001907           JUNCTION     0.61     0.76     7.05     0  03:01        0.76
  YS02001910           JUNCTION     0.41     0.54     7.05     0  03:01        0.54
  YS02001915           JUNCTION     0.22     0.33     7.04     0  03:01        0.33
  YS02001918           JUNCTION     0.06     0.08     7.14     0  03:04        0.08
  YS02001619           JUNCTION     0.40     0.65     7.58     0  07:24        0.65
  YS02001629           JUNCTION     0.73     1.03     7.58     0  07:24        1.03
  YS02001641           JUNCTION     0.83     1.14     7.58     0  07:24        1.14
  YS02001644           JUNCTION     0.83     1.15     7.58     0  07:50        1.15
  YS02001652           JUNCTION     0.68     0.98     7.58     0  07:23        0.98
  YS02001655           JUNCTION     0.46     0.73     7.58     0  07:25        0.73
  YS02001920           JUNCTION     0.15     0.17     7.18     0  03:03        0.17
  YS02001923           JUNCTION     0.05     0.06     7.32     0  03:02        0.06
  YS02001926           JUNCTION     0.11     0.14     7.59     0  03:02        0.14
  YS02001929           JUNCTION     0.05     0.07     7.76     0  03:01        0.07
  YS02001658           JUNCTION     0.22     0.44     7.58     0  07:25        0.44
  YS02001661           JUNCTION     0.13     0.18     7.58     0  07:49        0.18
  YS02001664           JUNCTION     0.05     0.09     8.01     0  02:57        0.09
  YS02001622           JUNCTION     0.42     0.68     7.58     0  07:24        0.68
  YS02001633           JUNCTION     0.81     1.13     7.58     0  07:24        1.13
  YS02001649           JUNCTION     0.87     1.19     7.58     0  07:50        1.19
  YS02001757           JUNCTION     0.99     1.32     7.58     0  07:50        1.32
  YS02001895           JUNCTION     0.20     0.31     7.06     0  03:01        0.31
  YS02001625           JUNCTION     0.69     0.98     7.58     0  07:24        0.98
  YS02163301           JUNCTION     0.76     1.06     7.58     0  07:24        1.06
  YS02163601           JUNCTION     0.87     1.18     7.58     0  07:24        1.18
  YS02164001           JUNCTION     0.81     1.12     7.58     0  07:24        1.12
  YS02001647           JUNCTION     0.67     0.97     7.58     0  07:23        0.97
  YSB1154              JUNCTION     0.23     0.34     9.40     0  02:23        0.34
  YSB6556              JUNCTION     0.12     0.23     9.39     0  02:23        0.23
  YSB1174              JUNCTION     0.18     0.29     9.39     0  02:23        0.29
  YSB1171              JUNCTION     0.37     0.49     9.39     0  02:23        0.49
  YS02006553           JUNCTION     0.62     0.76     7.04     0  03:01        0.76
  YS02006561           JUNCTION     0.11     0.17     6.83     0  03:02        0.17
  YS02006556           JUNCTION     0.59     0.73     7.04     0  03:02        0.73
  YS02006558           JUNCTION     0.64     0.78     7.04     0  03:02        0.78
  YS02001783           JUNCTION     0.21     0.57     6.71     0  03:14        0.54
  YS02001784           JUNCTION     0.25     0.63     6.70     0  03:14        0.62
  YS02001786           JUNCTION     0.23     0.65     6.68     0  03:14        0.64
  YS02001788           JUNCTION     0.19     0.68     6.66     0  03:14        0.68
  YS02001790           JUNCTION     0.27     1.01     6.65     0  03:11        0.99
  YS02001791           JUNCTION     0.27     1.43     6.90     0  03:08        1.15
  YS02001793           JUNCTION     0.45     1.99     6.82     0  03:04        1.78
  WS02004139           JUNCTION     0.44     0.55     5.46     0  05:30        0.55
  WSC                  OUTFALL      0.20     0.28     0.95     0  03:06        0.28
  3                    OUTFALL      0.04     0.20     6.20     0  05:40        0.20
  4                    OUTFALL      0.00     0.00     7.00     0  00:00        0.00
  5                    OUTFALL      0.00     0.00     5.00     0  00:00        0.00
  JK-storage           STORAGE      2.79     5.80     6.60     0  03:13        5.80
  CC-storage           STORAGE      0.30     0.58     7.58     0  07:50        0.58
  XR-storage           STORAGE      7.59     7.72     5.72     0  01:00        7.72
  
  
  *******************
  Node Inflow Summary
  *******************
  
  -------------------------------------------------------------------------------------------------
                                  Maximum  Maximum                  Lateral       Total        Flow
                                  Lateral    Total  Time of Max      Inflow      Inflow     Balance
                                   Inflow   Inflow   Occurrence      Volume      Volume       Error
  Node                 Type           LPS      LPS  days hr:min    10^6 ltr    10^6 ltr     Percent
  -------------------------------------------------------------------------------------------------
  WS02001211           JUNCTION      7.35   197.52     0  05:30       0.207        3.04       0.794
  WS02001212           JUNCTION      0.00   197.37     0  05:30           0        3.02       0.370
  WS02001213           JUNCTION      0.00   197.31     0  05:30           0        3.01       0.534
  WS02003069           JUNCTION      0.32   507.83     0  03:04     0.00902        6.67       0.276
  WS02003072           JUNCTION      0.00   507.59     0  03:04           0        6.65       0.371
  WS02003073           JUNCTION      1.82   509.10     0  03:05      0.0514        6.68       0.389
  WS02003060           JUNCTION     16.53   507.42     0  03:03       0.466        6.69       0.271
  WS02003066           JUNCTION      0.00   316.72     0  05:54           0        3.26       0.107
  WS02003059           JUNCTION      0.00   198.44     0  05:31           0        2.99       1.015
  WS02003067           JUNCTION      0.00   316.69     0  05:54           0        3.27       0.236
  WS02004401           JUNCTION      0.00   324.69     0  05:48           0        3.45       0.475
  WS02004402           JUNCTION      0.00   323.23     0  05:50           0        3.44       0.463
  WS02004403           JUNCTION      0.00   323.03     0  05:51           0        3.42       0.434
  WS02004404           JUNCTION      0.16   322.96     0  05:51     0.00457        3.41       0.340
  WS02004406           JUNCTION      0.00   322.70     0  05:51           0        3.38       0.842
  WS02004409           JUNCTION      0.00   322.50     0  05:52           0        3.35       0.338
  WS02004410           JUNCTION      0.00   320.80     0  05:52           0        3.34       0.405
  WS02004411           JUNCTION      0.00   319.29     0  05:53           0        3.33       0.434
  WS02004412           JUNCTION      0.00   318.25     0  05:53           0        3.31       0.491
  WS02004413           JUNCTION      0.00   317.29     0  05:53           0        3.29       0.759
  WS02004405           JUNCTION      0.04   322.86     0  05:51     0.00107         3.4       0.511
  WS02006109           JUNCTION      1.23   333.07     0  05:44      0.0347        3.51       0.270
  WS02006110           JUNCTION      0.00   333.02     0  05:45           0         3.5       0.361
  WS02006111           JUNCTION      0.00   338.13     0  05:45           0        3.49       0.064
  WS02006112           JUNCTION      5.55   333.34     0  05:45      0.0177         3.5       0.660
  WS02006113           JUNCTION      0.00   333.03     0  05:45           0        3.49       0.132
  WS02006115           JUNCTION      0.00   330.22     0  05:46           0        3.48       0.382
  WS02006116           JUNCTION      0.00   326.99     0  05:47           0        3.47       0.384
  WS02006230           JUNCTION     10.28   320.08     0  05:44        0.29        2.83       0.280
  WS02006231           JUNCTION      0.00   309.82     0  05:43           0        2.55       0.120
  WS02006232           JUNCTION      0.00   309.86     0  05:43           0        2.55       0.341
  WS02006234           JUNCTION      0.00   309.96     0  05:42           0        2.55      -0.122
  WS02006235           JUNCTION      0.00   310.05     0  05:42           0        2.63       0.353
  WS02006238           JUNCTION      0.00   236.61     0  05:50           0        1.51      -0.084
  WS02006240           JUNCTION      0.00   218.39     0  05:51           0        1.44       0.152
  WS02006242           JUNCTION      0.00   216.35     0  02:50           0        1.42       0.264
  WS02006243           JUNCTION      0.00   216.70     0  02:48           0        1.41      -0.167
  WS02006245           JUNCTION      0.00   216.96     0  02:46           0        1.42       0.566
  WS02006247           JUNCTION      0.00   217.23     0  02:46           0        1.42       0.162
  WS02006248           JUNCTION      0.00   217.51     0  02:45           0        1.41      -0.282
  WS02006249           JUNCTION      0.00   217.91     0  02:44           0        1.42       0.532
  WS02006239           JUNCTION      0.00   226.64     0  05:50           0        1.47      -0.273
  WS02006251           JUNCTION      0.08   219.35     0  02:40     0.00217        1.44      -0.075
  WS02006252           JUNCTION      0.00   200.00     0  02:40           0        1.32       0.018
  WS02006253           JUNCTION      0.86    23.83     0  02:23      0.0023       0.116       0.166
  WS02006256           JUNCTION      0.00   599.93     0  05:40           0           2       0.130
  WS02004138           JUNCTION      0.00   190.00     0  05:20           0        2.85       0.071
  WS02004407           JUNCTION      0.00   322.57     0  05:51           0        3.35       0.146
  WS02006228           JUNCTION      0.00   331.92     0  05:44           0        3.49       0.267
  WS02006229           JUNCTION      0.00   331.95     0  05:44           0         3.5       0.306
  WS02006280           JUNCTION      0.00   128.47     0  02:24           0       0.675       0.011
  WS02006284           JUNCTION      0.10   128.47     0  02:24      0.0027       0.676       0.168
  WS02006287           JUNCTION      0.00   128.39     0  02:24           0       0.674       0.103
  WSF200               JUNCTION      0.00   316.69     0  05:54           0        3.26       0.089
  HS02004901           JUNCTION      6.88     6.88     0  02:14      0.0213      0.0215       8.912
  HS02004881           JUNCTION      2.77    23.18     0  02:23      0.0093      0.0964       0.130
  HS02004876           JUNCTION      4.39    20.64     0  02:23      0.0178      0.0877       0.597
  HS02004870           JUNCTION      4.88    16.35     0  02:23      0.0176        0.07       0.152
  HS02004862           JUNCTION      4.07    11.80     0  02:24      0.0231      0.0526       0.320
  HS02004856           JUNCTION      3.61     7.77     0  02:23      0.0132      0.0309       4.881
  HS02004852           JUNCTION      0.00     4.39     0  02:23           0      0.0177       0.274
  HS02004848           JUNCTION      7.93     7.93     0  02:26      0.0415      0.0415       0.104
  HS02004842           JUNCTION      0.00     4.47     0  00:03           0      0.0368      54.660
  HS02004837           JUNCTION     14.15    17.50     0  02:22        0.21       0.233       0.350
  HS02004830           JUNCTION      0.15    17.64     0  02:22     0.00423       0.224       0.554
  HS02004824           JUNCTION      8.91    26.44     0  02:27      0.0545       0.277       0.195
  HS02004817           JUNCTION      0.60    27.03     0  02:27      0.0169       0.293       6.020
  HS02004807           JUNCTION      9.19    35.40     0  02:25      0.0324       0.309       1.386
  HS02004802           JUNCTION      0.00    35.48     0  02:26           0       0.305       1.349
  HS02004799           JUNCTION      7.06    79.20     0  02:21      0.0262       0.333       0.678
  HS02004792           JUNCTION     31.74    72.33     0  02:21       0.117       0.307       0.136
  HS02004788           JUNCTION     11.24    42.22     0  02:23      0.0834       0.191       0.206
  HS02004785           JUNCTION      0.15    31.37     0  02:22     0.00423        0.11       0.439
  HS02004777           JUNCTION      0.03    31.70     0  02:19    0.000846        0.11       4.931
  HS02004770           JUNCTION     26.82    32.75     0  02:17      0.0911       0.111       2.877
  HS02004480           JUNCTION      0.00    93.31     0  02:22           0       0.385       0.180
  HS02004479           JUNCTION      0.00    14.38     0  02:24           0      0.0645       1.142
  HS02004478           JUNCTION      0.00   128.40     0  02:24           0       0.674       0.097
  YS02001745           JUNCTION     44.03    44.03     0  03:01       0.508       0.508       0.139
  YS02001748           JUNCTION      0.04   118.89     0  04:22     0.00127       0.589       1.740
  YS02001751           JUNCTION      0.01   150.87     0  04:12     0.00031       0.584       3.067
  YS02001754           JUNCTION      0.26   181.71     0  04:02     0.00733       0.572       4.270
  YS02001762           JUNCTION      0.00   109.77     0  03:38           0        0.54       4.117
  YS02001765           JUNCTION      0.00   112.01     0  03:37           0       0.538       4.756
  YS02001767           JUNCTION      0.54    75.89     0  05:12      0.0151       0.557       6.800
  YS02001770           JUNCTION     57.41    76.12     0  05:11       0.607       0.668       4.975
  YS02001774           JUNCTION      0.00    54.27     0  05:12           0       0.155      19.782
  YS02001779           JUNCTION      0.01    55.17     0  05:12    0.000141      0.0694      26.049
  YS02001882           JUNCTION      0.00     2.53     0  02:13           0     0.00369      66.982
  YS02001884           JUNCTION      0.00     7.47     0  02:09           0       0.015      42.078
  YS02001759           JUNCTION     56.19   168.83     0  03:37       0.569        1.07       2.217
  YS02001887           JUNCTION     74.16    74.16     0  02:54       0.694       0.701       0.965
  YS02001890           JUNCTION      0.00    73.80     0  02:56           0       0.681       1.092
  YS02001898           JUNCTION      0.00    73.53     0  02:59           0       0.671       0.282
  YS02001901           JUNCTION      0.00    73.47     0  02:59           0       0.671       0.760
  YS02001904           JUNCTION      0.00    73.41     0  03:02           0        0.67       0.709
  YS02001907           JUNCTION      0.00   133.66     0  03:02           0        1.43       1.518
  YS02001910           JUNCTION      0.00    60.34     0  03:01           0       0.766       1.267
  YS02001915           JUNCTION     39.75    60.28     0  03:01       0.439        0.77       0.525
  YS02001918           JUNCTION      0.00    20.77     0  03:03           0       0.332       0.264
  YS02001619           JUNCTION     38.56    38.56     0  03:01       0.432       0.433       1.971
  YS02001629           JUNCTION      0.00    60.22     0  04:19           0       0.384       6.128
  YS02001641           JUNCTION      0.00    85.19     0  03:06           0       0.768       2.866
  YS02001644           JUNCTION     41.77   121.57     0  03:04       0.487        1.23       2.204
  YS02001652           JUNCTION      0.00   110.37     0  03:41           0       0.541       4.335
  YS02001655           JUNCTION      0.15   117.68     0  04:10     0.00434       0.557       3.507
  YS02001920           JUNCTION      2.87    20.79     0  03:02      0.0809       0.333       0.529
  YS02001923           JUNCTION      0.04    17.92     0  03:02     0.00106       0.253       0.093
  YS02001926           JUNCTION      0.05    17.94     0  03:01     0.00147       0.253       0.676
  YS02001929           JUNCTION     17.90    17.90     0  03:01       0.252       0.252       0.089
  YS02001658           JUNCTION      0.00    92.05     0  04:17           0       0.563       1.790
  YS02001661           JUNCTION      0.00    52.42     0  02:57           0       0.502       0.371
  YS02001664           JUNCTION     52.42    52.42     0  02:57       0.502       0.502       0.030
  YS02001622           JUNCTION      0.00    47.74     0  04:17           0       0.428       5.694
  YS02001633           JUNCTION     42.46    84.83     0  03:49       0.503       0.826       4.047
  YS02001649           JUNCTION      0.00   219.06     0  03:42           0        1.68       2.269
  YS02001757           JUNCTION      0.00   405.14     0  03:07           0        3.13       2.755
  YS02001895           JUNCTION      0.00    73.61     0  02:58           0       0.674       0.482
  YS02001625           JUNCTION      0.00    73.99     0  05:11           0       0.422       9.687
  YS02163301           JUNCTION      0.00    52.71     0  03:48           0       0.349       7.394
  YS02163601           JUNCTION      0.11    87.26     0  04:08      0.0031       0.793       3.994
  YS02164001           JUNCTION      0.00    85.88     0  03:41           0       0.771       2.720
  YS02001647           JUNCTION      0.00   127.58     0  03:06           0        1.19       2.362
  YSB1154              JUNCTION      7.80     7.80     0  02:20      0.0316      0.0331       4.564
  YSB6556              JUNCTION      0.00     7.73     0  02:22           0      0.0342       3.779
  YSB1174              JUNCTION      7.85     7.85     0  02:13      0.0232      0.0242       5.614
  YSB1171              JUNCTION      0.00    14.43     0  02:22           0      0.0639      10.973
  YS02006553           JUNCTION      0.00   133.82     0  03:03           0        1.41       0.989
  YS02006561           JUNCTION      0.00   195.84     0  03:02           0           2       0.027
  YS02006556           JUNCTION      0.00   133.99     0  03:04           0        1.42       0.709
  YS02006558           JUNCTION     62.97   195.86     0  03:01       0.632        2.02       0.215
  YS02001783           JUNCTION      0.00   195.83     0  03:02           0           2       0.062
  YS02001784           JUNCTION      1.06   213.50     0  03:14      0.0299        2.03       0.107
  YS02001786           JUNCTION      0.06   231.94     0  03:14     0.00159        2.03       0.104
  YS02001788           JUNCTION      0.07   251.34     0  03:15       0.002        2.02       0.057
  YS02001790           JUNCTION      0.15   253.48     0  03:15     0.00437        2.03       0.046
  YS02001791           JUNCTION      0.00   282.71     0  03:07           0        2.03       0.030
  YS02001793           JUNCTION      0.00   586.38     0  04:09           0        2.08       0.044
  WS02004139           JUNCTION      0.32   190.32     0  05:23     0.00905        2.86       0.819
  WSC                  OUTFALL       0.00   508.67     0  03:06           0        6.66       0.000
  3                    OUTFALL       0.00   477.37     0  05:40           0        0.84       0.000
  4                    OUTFALL       0.00     0.00     0  00:00           0           0       0.000 ltr
  5                    OUTFALL       0.00     0.00     0  00:00           0           0       0.000 ltr
  JK-storage           STORAGE       0.00   629.65     0  04:09           0        2.22      -3.670
  CC-storage           STORAGE       0.00   321.34     0  03:05           0        2.96       1.205
  XR-storage           STORAGE     272.15   272.15     0  03:01        6.49        7.09       0.002
  
  
  **********************
  Node Surcharge Summary
  **********************
  
  Surcharging occurs when water rises above the top of the highest conduit.
  ---------------------------------------------------------------------
                                               Max. Height   Min. Depth
                                   Hours       Above Crown    Below Rim
  Node                 Type      Surcharged         Meters       Meters
  ---------------------------------------------------------------------
  YS02001762           JUNCTION        3.26          0.179        0.971
  YS02001765           JUNCTION        2.72          0.129        0.971
  YS02001767           JUNCTION        1.82          0.090        0.940
  YS02001770           JUNCTION        1.02          0.054        0.866
  YS02001774           JUNCTION        3.13          0.156        0.894
  YS02001759           JUNCTION        3.45          0.215        0.995
  YS02001641           JUNCTION        2.88          0.143        0.957
  YS02001644           JUNCTION        2.94          0.148        0.772
  YS02001633           JUNCTION        2.34          0.107        0.953
  YS02001649           JUNCTION        3.32          0.189        0.861
  YS02001757           JUNCTION        4.25          0.318        0.892
  YS02163301           JUNCTION        1.10          0.064        0.966
  YS02163601           JUNCTION        3.28          0.182        0.898
  YS02164001           JUNCTION        2.69          0.122        0.978
  YS02001790           JUNCTION        0.88          0.208        0.949
  YS02001791           JUNCTION        1.07          0.629        1.291
  YS02001793           JUNCTION        1.51          0.987        1.613
  
  
  *********************
  Node Flooding Summary
  *********************
  
  Flooding refers to all water that overflows a node, whether it ponds or not.
  --------------------------------------------------------------------------
                                                             Total   Maximum
                                 Maximum   Time of Max       Flood    Ponded
                        Hours       Rate    Occurrence      Volume     Depth
  Node                 Flooded       LPS   days hr:min    10^6 ltr    Meters
  --------------------------------------------------------------------------
  JK-storage              0.61    255.25      0  03:15       0.240     0.000
  XR-storage              6.82    267.76      0  02:40       3.310     0.000
  
  
  **********************
  Storage Volume Summary
  **********************
  
  --------------------------------------------------------------------------------------------------
                         Average     Avg  Evap Exfil       Maximum     Max    Time of Max    Maximum
                          Volume    Pcnt  Pcnt  Pcnt        Volume    Pcnt     Occurrence    Outflow
  Storage Unit           1000 m3    Full  Loss  Loss       1000 m3    Full    days hr:min        LPS
  --------------------------------------------------------------------------------------------------
  JK-storage               0.140      48     0     0         0.291     100       0  03:13     599.93
  CC-storage               0.830       5     0     0         1.609      10       0  07:50     200.00
  XR-storage               0.911      98     0     0         0.926     100       0  01:00     190.00
  
  
  ***********************
  Outfall Loading Summary
  ***********************
  
  -----------------------------------------------------------
                         Flow       Avg       Max       Total
                         Freq      Flow      Flow      Volume
  Outfall Node           Pcnt       LPS       LPS    10^6 ltr
  -----------------------------------------------------------
  WSC                   99.99    263.49    508.67       6.655
  3                     43.57    131.55    477.37       0.840
  4                      0.00      0.00      0.00       0.000
  5                      0.00      0.00      0.00       0.000
  -----------------------------------------------------------
  System                35.89    395.04    770.57       7.495
  
  
  ********************
  Link Flow Summary
  ********************
  
  -----------------------------------------------------------------------------
                                 Maximum  Time of Max   Maximum    Max/    Max/
                                  |Flow|   Occurrence   |Veloc|    Full    Full
  Link                 Type          LPS  days hr:min     m/sec    Flow   Depth
  -----------------------------------------------------------------------------
  WS02003066WSF200     CONDUIT    316.69     0  05:54      2.45    0.05    0.17
  WS02006287WS02006284 CONDUIT    128.38     0  02:24      1.37    0.06    0.18
  WS02006284WS02006280 CONDUIT    128.47     0  02:24      1.62    0.05    0.16
  WS02006280WS02006229 CONDUIT    128.47     0  02:24      2.60    0.03    0.11
  WS02006229WS02006228 CONDUIT    331.92     0  05:44      0.83    1.10    0.90
  WS02006256WS02006235 CONDUIT    166.25     0  00:01      2.58    1.76    1.00
  WS02006253WS02006251 CONDUIT     23.82     0  02:24      0.40    0.07    0.60
  WS02006252WS02006251 CONDUIT    200.34     0  02:40      1.97    0.74    0.76
  WS02006251WS02006249 CONDUIT    217.91     0  02:44      0.94    0.63    0.59
  WS02006249WS02006248 CONDUIT    217.51     0  02:45      1.02    1.19    0.55
  WS02006248WS02006247 CONDUIT    217.23     0  02:46      0.99    0.47    0.56
  WS02006247WS02006245 CONDUIT    216.96     0  02:46      0.96    1.72    0.59
  WS02006245WS02006243 CONDUIT    216.70     0  02:48      1.05    0.64    0.59
  WS02006243WS02006242 CONDUIT    216.35     0  02:50      0.91    0.46    0.68
  WS02006242WS02006240 CONDUIT    218.39     0  05:51      0.81    0.87    0.75
  WS02006240WS02006239 CONDUIT    226.64     0  05:50      0.96    0.71    0.73
  WS02006239WS02006238 CONDUIT    236.61     0  05:50      0.80    0.76    0.83
  WS02006238WS02006235 CONDUIT    241.96     0  05:50      1.25    0.54    0.86
  WS02006235WS02006234 CONDUIT    309.96     0  05:42      1.06    3.27    0.80
  WS02006234WS02006232 CONDUIT    309.86     0  05:43      1.13    0.63    0.85
  WS02006232WS02006231 CONDUIT    309.82     0  05:43      0.94    0.65    0.80
  WS02006231WS02006230 CONDUIT    309.80     0  05:44      1.29    4.70    0.60
  WS02006230WS02006229 CONDUIT    320.05     0  05:44      0.86    7.12    0.98
  WS02006228WS02006109 CONDUIT    331.84     0  05:44      0.75    1.45    0.93
  WS02006116WS02004401 CONDUIT    324.69     0  05:48      0.73    0.45    0.67
  WS02006115WS02006116 CONDUIT    326.99     0  05:47      0.79    0.42    0.58
  WS02006113WS02006111 CONDUIT    338.13     0  05:45      2.09    0.41    0.36
  WS02006112WS02006115 CONDUIT    330.22     0  05:46      0.59    0.19    0.70
  WS02006111WS02006112 CONDUIT    333.30     0  05:45      1.32    0.16    0.63
  WS02006110WS02006113 CONDUIT    333.03     0  05:45      0.90    0.30    0.69
  WS02006109WS02006110 CONDUIT    333.02     0  05:45      0.71    0.64    0.88
  WS02004411WS02004412 CONDUIT    318.25     0  05:53      0.72    0.45    0.55
  WS02004401WS02004402 CONDUIT    323.23     0  05:50      0.77    0.39    0.70
  WS02004413WS02003067 CONDUIT    316.69     0  05:54      0.84    0.14    0.49
  WS02004412WS02004413 CONDUIT    317.29     0  05:53      0.60    0.21    0.64
  WS02004410WS02004411 CONDUIT    319.29     0  05:53      0.76    0.44    0.53
  WS02004409WS02004410 CONDUIT    320.80     0  05:52      0.82    0.41    0.51
  WS02004407WS02004409 CONDUIT    322.50     0  05:52      1.29    0.11    0.36
  WS02004406WS02004407 CONDUIT    322.57     0  05:51      0.77    0.14    0.53
  WS02004405WS02004406 CONDUIT    322.70     0  05:51      0.66    0.64    0.82
  WS02004404WS02004405 CONDUIT    322.82     0  05:51      0.84    3.16    0.81
  WS02004403WS02004404 CONDUIT    322.80     0  05:51      0.74    0.23    0.78
  WS02004402WS02004403 CONDUIT    323.03     0  05:51      0.75    0.46    0.73
  WS02004139WS02001211 CONDUIT    190.17     0  05:30      0.53    0.24    0.44
  WS02004138WS02004139 CONDUIT    190.00     0  05:23      2.39    0.04    0.32
  WS02003067WS02003066 CONDUIT    316.72     0  05:54      0.90    0.10    0.35
  WS02001213WS02003059 CONDUIT    198.44     0  05:31      0.45    0.33    0.60
  WS02001212WS02001213 CONDUIT    197.31     0  05:30      1.03    0.30    0.29
  WS02001211WS02001212 CONDUIT    197.37     0  05:30      0.54    0.15    0.48
  WS02003072WS02003073 CONDUIT    507.28     0  03:05      1.39    1.10    0.36
  WS02003069WS02003072 CONDUIT    507.59     0  03:04      1.33    0.24    0.37
  WS02003060WS02003069 CONDUIT    507.51     0  03:04      1.61    0.20    0.32
  WS02003059WS02003060 CONDUIT    200.58     0  05:31      0.63    0.13    0.50
  HS02004901HS02004770 CONDUIT      6.18     0  02:21      0.03    0.02    0.27
  HS02004876HS02004881 CONDUIT     20.66     0  02:24      0.40    0.22    0.07
  HS02004870HS02004876 CONDUIT     16.34     0  02:24      0.28    0.01    0.08
  HS02004842HS02004848 CONDUIT      3.77     0  02:36      0.02    0.00    0.26
  HS02004837HS02004842 CONDUIT      4.47     0  00:03      0.41    0.00    0.28
  HS02004830HS02004837 CONDUIT     17.49     0  02:22      0.39    0.02    0.06
  HS02004824HS02004830 CONDUIT     17.64     0  02:24      0.43    0.02    0.06
  HS02004817HS02004824 CONDUIT     26.43     0  02:27      0.17    0.01    0.37
  HS02004770HS02004777 CONDUIT     31.67     0  02:19      0.16    0.06    0.28
  HS02004799HS02004480 CONDUIT     79.06     0  02:22      0.46    0.10    0.25
  HS02004792HS02004799 CONDUIT     72.30     0  02:22      0.53    0.04    0.19
  HS02004788HS02004792 CONDUIT     42.19     0  02:23      0.69    0.03    0.09
  HS02004785HS02004788 CONDUIT     31.26     0  02:23      0.41    0.24    0.11
  HS02004777HS02004785 CONDUIT     31.22     0  02:22      0.20    0.04    0.22
  HS02004480HS02004478 CONDUIT     93.26     0  02:23      0.78    0.39    0.17
  HS02004479HS02004480 CONDUIT     14.50     0  02:25      0.16    0.01    0.24
  HS02004862HS02004870 CONDUIT     11.77     0  02:25      0.38    0.01    0.04
  HS02004848HS02004852 CONDUIT      4.39     0  02:23      0.24    0.00    0.03
  HS02004856HS02004862 CONDUIT      7.75     0  02:24      0.27    0.01    0.04
  HS02004852HS02004856 CONDUIT      4.36     0  02:25      0.08    0.00    0.08
  HS02004802HS02004478 CONDUIT     35.64     0  02:27      0.24    0.03    0.21
  HS02004478WS02006287 CONDUIT    128.39     0  02:24      1.06    0.04    0.13
  HS02004817HS02004807 CONDUIT     27.29     0  02:29      0.08    0.02    0.47
  HS02004807HS02004802 CONDUIT     35.48     0  02:26      0.20    0.07    0.26
  YS02001759YS02001757 CONDUIT    123.44     0  03:00      0.17    0.09    1.00
  YS02001762YS02001759 CONDUIT    127.79     0  03:37      0.17    0.15    1.00
  YS02001765YS02001762 CONDUIT    109.77     0  03:38      0.22    0.10    1.00
  YS02001770YS02001767 CONDUIT     74.08     0  04:14      0.32    0.29    1.00
  YS02001774YS02001770 CONDUIT     54.27     0  05:12      0.14    0.03    1.00
  YS02001779YS02001774 CONDUIT     55.16     0  05:12      0.07    0.03    0.95
  YS02001649YS02001757 CONDUIT    196.71     0  03:58      0.25    0.12    1.00
  YS02001767YS02001765 CONDUIT    100.94     0  03:37      0.26    0.13    1.00
  YS02006561YS02001783 CONDUIT    195.83     0  03:02      1.58    0.10    0.46
  YS02001783YS02001784 CONDUIT    212.44     0  03:14      1.06    0.29    0.74
  YS02001784YS02001785 CONDUIT    231.89     0  03:14      1.10    0.54    0.80
  YS02001788YS02001790 CONDUIT    253.33     0  03:15      1.66    0.19    0.92
  YS02001790YS02001791 CONDUIT    282.71     0  03:07      1.94    0.31    1.00
  YS02001791YS02001793 CONDUIT    435.53     0  03:59      3.80    0.19    1.00
  YS02001910YS02001907 CONDUIT     60.35     0  03:04      0.49    0.03    0.64
  YS02001786YS02001788 CONDUIT    251.26     0  03:15      1.51    0.48    0.83
  YS02001915YS02001910 CONDUIT     60.34     0  03:01      0.44    0.03    0.43
  YS02001918YS02001915 CONDUIT     20.75     0  03:04      0.44    0.01    0.20
  YS02001923YS02001920 CONDUIT     17.92     0  03:02      0.35    0.01    0.12
  YS02001926YS02001923 CONDUIT     17.88     0  03:02      0.40    0.03    0.11
  YS02001929YS02001926 CONDUIT     17.89     0  03:01      0.42    0.01    0.10
  YS02001920YS02001918 CONDUIT     20.77     0  03:03      0.37    0.02    0.12
  YS02001629YS02163301 CONDUIT     52.71     0  03:48      0.09    0.06    1.00
  YS02001619YS02001622 CONDUIT     47.74     0  04:17      0.57    0.07    0.66
  YS02001622YS02001625 CONDUIT     57.22     0  04:13      0.19    0.03    0.83
  YS02001625YS02001629 CONDUIT     60.22     0  04:19      0.19    0.03    0.81
  YS02163301YS02001633 CONDUIT     52.62     0  03:49      0.09    0.05    1.00
  YS02163601YS02164001 CONDUIT     85.88     0  03:41      0.12    0.08    1.00
  YS02164001YS02001641 CONDUIT     85.19     0  03:06      0.13    0.12    1.00
  YS02001641YS02001644 CONDUIT     82.24     0  03:48      0.13    0.27    1.00
  YS02001647YS02001649 CONDUIT    132.37     0  03:44      0.21    0.07    0.98
  YS02006553YS02006556 CONDUIT    133.99     0  03:04      0.22    0.11    0.73
  YS02006556YS02006558 CONDUIT    134.12     0  03:04      0.21    0.11    0.75
  YSB6556YSB1171       CONDUIT      7.85     0  02:26      0.04    0.01    0.51
  YS02001907YS02006553 CONDUIT    133.82     0  03:03      0.18    0.16    0.83
  YS02006558YS02006561 CONDUIT    195.84     0  03:02      2.03    0.43    0.37
  YS02001633YS02163601 CONDUIT     87.15     0  04:08      0.13    0.09    1.00
  YS02001644YS02001647 CONDUIT    127.58     0  03:06      0.21    0.07    0.98
  YS02001745YS02001748 CONDUIT     44.01     0  03:01      1.25    0.02    0.24
  YS02001748YS02001751 CONDUIT    150.86     0  04:12      0.96    0.08    0.60
  YS02001751YS02001754 CONDUIT     96.46     0  03:29      0.88    0.05    0.81
  YS02001754YS02001757 CONDUIT    150.58     0  04:00      0.33    0.06    0.99
  YS02001882YS02001884 CONDUIT      2.53     0  02:13      0.06    0.00    0.37
  YS02001884YS02001887 CONDUIT      7.47     0  02:09      0.06    0.01    0.46
  YS02001890YS02001895 CONDUIT     73.61     0  02:58      0.23    0.03    0.43
  YS02001895YS02001898 CONDUIT     73.53     0  02:59      0.44    0.13    0.30
  YS02001898YS02001901 CONDUIT     73.47     0  02:59      0.27    0.05    0.37
  YS02001901YS02001904 CONDUIT     73.41     0  03:02      0.23    0.11    0.43
  YS02001904YS02001907 CONDUIT     73.60     0  03:02      0.15    0.03    0.59
  YS02001887YS02001890 CONDUIT     73.80     0  02:56      0.18    0.13    0.52
  YS02001652YS02001649 CONDUIT    127.74     0  04:14      0.29    0.06    0.99
  YS02001655YS02001652 CONDUIT     76.00     0  03:47      0.94    0.04    0.84
  YS02001658YS02001655 CONDUIT    117.52     0  04:10      1.11    0.05    0.58
  YS02001661YS02001658 CONDUIT     52.42     0  02:57      1.26    0.02    0.27
  YS02001664YS02001661 CONDUIT     52.42     0  02:57      0.88    0.02    0.13
  YSB1154YSB6556       CONDUIT      7.73     0  02:22      0.19    0.01    0.40
  YSB1174YSB1171       CONDUIT      7.20     0  02:15      0.04    0.01    0.52
  YSB1171HS02004479    CONDUIT     14.38     0  02:24      0.54    0.01    0.39
  HS02004881HS02006253 CONDUIT     23.18     0  02:23      1.36    0.00    0.08
  YS02001793JiankangQianchi CONDUIT    629.65     0  04:09     10.73    0.05    1.00
  YS02001757CaochengTiaoxuchi CONDUIT    321.34     0  03:05      0.80    0.14    0.79
  WSF200WS02003060     CONDUIT    316.79     0  05:54      1.63    0.07    0.25
  1                    CONDUIT    508.67     0  03:06      2.76    0.18    0.28
  2                    CONDUIT      0.00     0  00:00      0.00    0.00    0.00
  3                    CONDUIT    477.37     0  05:40      9.73    0.76    0.66
  4                    CONDUIT      0.00     0  00:00      0.00    0.00    0.00
  CC-Pump-1            PUMP       199.97     0  03:40              1.00
  CC-Pump-2            PUMP       200.00     0  02:40              1.00
  JK-Pump-1            PUMP       300.00     0  00:00              1.00
  JK-Pump-2            PUMP       300.00     0  05:00              1.00
  XR-Pump-1            PUMP        95.00     0  00:00              1.00
  XR-Pump-2            PUMP        94.82     0  00:40              1.00
  XR-Pump-3            PUMP        94.90     0  04:20              1.00
  XR-Pump-4            PUMP        95.00     0  00:30              1.00
  
  
  ***************************
  Flow Classification Summary
  ***************************
  
  -------------------------------------------------------------------------------------
                      Adjusted    ---------- Fraction of Time in Flow Class ---------- 
                       /Actual         Up    Down  Sub   Sup   Up    Down  Norm  Inlet 
  Conduit               Length    Dry  Dry   Dry   Crit  Crit  Crit  Crit  Ltd   Ctrl  
  -------------------------------------------------------------------------------------
  WS02003066WSF200        1.00   0.10  0.00  0.00  0.00  0.90  0.00  0.00  0.75  0.00
  WS02006287WS02006284    1.00   0.06  0.02  0.00  0.68  0.24  0.00  0.00  0.81  0.00
  WS02006284WS02006280    1.00   0.07  0.00  0.00  0.00  0.00  0.00  0.93  0.00  0.00
  WS02006280WS02006229    1.00   0.07  0.00  0.00  0.00  0.00  0.00  0.93  0.00  0.00
  WS02006229WS02006228    1.00   0.00  0.00  0.00  0.98  0.00  0.00  0.02  0.00  0.00
  WS02006256WS02006235    1.00   0.00  0.00  0.00  0.99  0.01  0.00  0.00  0.00  0.00
  WS02006253WS02006251    1.00   0.05  0.02  0.00  0.93  0.00  0.01  0.00  0.00  0.00
  WS02006252WS02006251    1.00   0.15  0.00  0.00  0.00  0.00  0.85  0.00  0.00  0.00
  WS02006251WS02006249    1.00   0.00  0.00  0.00  1.00  0.00  0.00  0.00  0.60  0.00
  WS02006249WS02006248    1.00   0.00  0.03  0.00  0.57  0.00  0.39  0.00  0.00  0.00
  WS02006248WS02006247    1.00   0.04  0.00  0.00  0.96  0.00  0.00  0.01  0.51  0.00
  WS02006247WS02006245    1.00   0.03  0.00  0.00  0.93  0.00  0.00  0.03  0.00  0.00
  WS02006245WS02006243    1.00   0.02  0.01  0.00  0.85  0.00  0.00  0.12  0.05  0.00
  WS02006243WS02006242    1.00   0.01  0.01  0.00  0.98  0.00  0.00  0.00  0.49  0.00
  WS02006242WS02006240    1.00   0.01  0.00  0.00  0.98  0.00  0.01  0.00  0.00  0.00
  WS02006240WS02006239    1.00   0.00  0.00  0.00  0.88  0.00  0.00  0.12  0.03  0.00
  WS02006239WS02006238    1.00   0.00  0.00  0.00  1.00  0.00  0.00  0.00  0.17  0.00
  WS02006238WS02006235    1.00   0.00  0.00  0.00  1.00  0.00  0.00  0.00  0.00  0.00
  WS02006235WS02006234    1.00   0.00  0.00  0.00  0.90  0.00  0.10  0.00  0.00  0.00
  WS02006234WS02006232    1.00   0.00  0.00  0.00  1.00  0.00  0.00  0.00  0.12  0.00
  WS02006232WS02006231    1.00   0.00  0.00  0.00  0.99  0.00  0.01  0.00  0.00  0.00
  WS02006231WS02006230    1.00   0.01  0.00  0.00  0.11  0.00  0.89  0.00  0.00  0.00
  WS02006230WS02006229    1.00   0.00  0.00  0.00  0.98  0.00  0.00  0.02  0.01  0.00
  WS02006228WS02006109    1.00   0.00  0.00  0.00  0.99  0.00  0.00  0.01  0.00  0.00
  WS02006116WS02004401    1.00   0.04  0.00  0.00  0.96  0.00  0.00  0.00  0.00  0.00
  WS02006115WS02006116    1.00   0.04  0.00  0.00  0.95  0.00  0.00  0.01  0.00  0.00
  WS02006113WS02006111    1.00   0.03  0.00  0.00  0.00  0.97  0.00  0.00  0.20  0.00
  WS02006112WS02006115    1.00   0.04  0.00  0.00  0.96  0.00  0.00  0.00  0.00  0.00
  WS02006111WS02006112    1.00   0.04  0.00  0.00  0.96  0.00  0.00  0.00  0.98  0.00
  WS02006110WS02006113    1.00   0.02  0.01  0.00  0.97  0.00  0.00  0.00  0.00  0.00
  WS02006109WS02006110    1.00   0.00  0.02  0.00  0.97  0.00  0.01  0.00  0.00  0.00
  WS02004411WS02004412    1.00   0.06  0.00  0.00  0.94  0.00  0.00  0.00  0.00  0.00
  WS02004401WS02004402    1.00   0.04  0.00  0.00  0.96  0.00  0.00  0.00  0.00  0.00
  WS02004413WS02003067    1.00   0.07  0.02  0.00  0.00  0.00  0.91  0.00  0.00  0.00
  WS02004412WS02004413    1.00   0.07  0.00  0.00  0.93  0.00  0.00  0.00  0.03  0.00
  WS02004410WS02004411    1.00   0.06  0.00  0.00  0.94  0.00  0.00  0.00  0.04  0.00
  WS02004409WS02004410    1.00   0.06  0.00  0.00  0.94  0.00  0.00  0.00  0.04  0.00
  WS02004407WS02004409    1.00   0.06  0.00  0.00  0.93  0.00  0.00  0.00  0.89  0.00
  WS02004406WS02004407    1.00   0.00  0.06  0.00  0.94  0.00  0.00  0.00  0.00  0.00
  WS02004405WS02004406    1.00   0.00  0.00  0.00  1.00  0.00  0.00  0.00  0.00  0.00
  WS02004404WS02004405    1.00   0.00  0.00  0.00  1.00  0.00  0.00  0.00  0.00  0.00
  WS02004403WS02004404    1.00   0.00  0.04  0.00  0.96  0.00  0.00  0.00  0.01  0.00
  WS02004402WS02004403    1.00   0.04  0.00  0.00  0.96  0.00  0.00  0.00  0.00  0.00
  WS02004139WS02001211    1.00   0.00  0.00  0.00  0.99  0.00  0.01  0.00  0.00  0.00
  WS02004138WS02004139    1.00   0.00  0.00  0.00  0.98  0.01  0.00  0.00  1.00  0.00
  WS02003067WS02003066    1.00   0.09  0.01  0.00  0.90  0.00  0.00  0.00  0.00  0.00
  WS02001213WS02003059    1.00   0.00  0.01  0.00  0.98  0.00  0.00  0.00  0.00  0.00
  WS02001212WS02001213    1.00   0.01  0.00  0.00  0.20  0.00  0.78  0.00  0.00  0.00
  WS02001211WS02001212    1.00   0.00  0.01  0.00  0.99  0.00  0.00  0.00  0.00  0.00
  WS02003072WS02003073    1.00   0.00  0.00  0.00  0.00  0.00  0.00  1.00  0.00  0.00
  WS02003069WS02003072    1.00   0.00  0.00  0.00  0.99  0.01  0.00  0.00  0.82  0.00
  WS02003060WS02003069    1.00   0.00  0.00  0.00  0.97  0.03  0.00  0.00  0.50  0.00
  WS02003059WS02003060    1.00   0.00  0.00  0.00  0.99  0.01  0.00  0.00  0.02  0.00
  HS02004901HS02004770    1.00   0.07  0.00  0.00  0.93  0.00  0.00  0.00  0.03  0.00
  HS02004876HS02004881    1.00   0.04  0.00  0.00  0.96  0.00  0.00  0.00  0.00  0.00
  HS02004870HS02004876    1.00   0.01  0.00  0.00  0.99  0.00  0.00  0.00  0.95  0.00
  HS02004842HS02004848    1.00   0.00  0.07  0.00  0.93  0.00  0.00  0.00  0.70  0.00
  HS02004837HS02004842    1.00   0.00  0.00  0.00  0.99  0.01  0.00  0.00  0.11  0.00
  HS02004830HS02004837    1.00   0.00  0.00  0.00  1.00  0.00  0.00  0.00  0.99  0.00
  HS02004824HS02004830    1.00   0.00  0.00  0.00  1.00  0.00  0.00  0.00  0.00  0.00
  HS02004817HS02004824    1.00   0.00  0.00  0.00  1.00  0.00  0.00  0.00  1.00  0.00
  HS02004770HS02004777    1.00   0.00  0.07  0.00  0.93  0.00  0.00  0.00  0.08  0.00
  HS02004799HS02004480    1.00   0.01  0.04  0.00  0.91  0.00  0.05  0.00  0.00  0.00
  HS02004792HS02004799    1.00   0.00  0.00  0.00  0.98  0.02  0.00  0.00  0.98  0.00
  HS02004788HS02004792    1.00   0.00  0.00  0.00  0.98  0.02  0.00  0.00  0.98  0.00
  HS02004785HS02004788    1.00   0.00  0.00  0.00  1.00  0.00  0.00  0.00  0.00  0.00
  HS02004777HS02004785    1.00   0.00  0.00  0.00  1.00  0.00  0.00  0.00  0.22  0.00
  HS02004480HS02004478    1.00   0.08  0.00  0.00  0.71  0.00  0.00  0.22  0.00  0.00
  HS02004479HS02004480    1.00   0.04  0.00  0.00  0.96  0.00  0.00  0.00  0.16  0.00
  HS02004862HS02004870    1.00   0.00  0.00  0.00  1.00  0.00  0.00  0.00  0.05  0.00
  HS02004848HS02004852    1.00   0.07  0.00  0.00  0.93  0.00  0.00  0.00  0.69  0.00
  HS02004856HS02004862    1.00   0.00  0.11  0.00  0.89  0.00  0.00  0.00  0.73  0.00
  HS02004852HS02004856    1.00   0.07  0.01  0.00  0.92  0.00  0.00  0.00  0.82  0.00
  HS02004802HS02004478    1.00   0.07  0.01  0.00  0.92  0.00  0.00  0.00  0.00  0.00
  HS02004478WS02006287    1.00   0.09  0.00  0.00  0.91  0.00  0.00  0.00  0.81  0.00
  HS02004817HS02004807    1.00   0.00  0.07  0.00  0.93  0.00  0.00  0.00  0.00  0.00
  HS02004807HS02004802    1.00   0.07  0.00  0.00  0.92  0.00  0.00  0.00  0.01  0.00
  YS02001759YS02001757    1.00   0.00  0.00  0.00  1.00  0.00  0.00  0.00  0.17  0.00
  YS02001762YS02001759    1.00   0.00  0.00  0.00  1.00  0.00  0.00  0.00  0.05  0.00
  YS02001765YS02001762    1.00   0.00  0.00  0.00  1.00  0.00  0.00  0.00  0.23  0.00
  YS02001770YS02001767    1.00   0.00  0.00  0.00  1.00  0.00  0.00  0.00  0.00  0.00
  YS02001774YS02001770    1.00   0.00  0.09  0.00  0.91  0.00  0.00  0.00  0.06  0.00
  YS02001779YS02001774    1.00   0.00  0.00  0.00  1.00  0.00  0.00  0.00  0.28  0.00
  YS02001649YS02001757    1.00   0.00  0.00  0.00  1.00  0.00  0.00  0.00  0.20  0.00
  YS02001767YS02001765    1.00   0.00  0.00  0.00  1.00  0.00  0.00  0.00  0.01  0.00
  YS02006561YS02001783    1.00   0.11  0.00  0.00  0.12  0.77  0.00  0.00  0.72  0.00
  YS02001783YS02001784    1.00   0.00  0.11  0.00  0.89  0.00  0.00  0.00  0.06  0.00
  YS02001784YS02001785    1.00   0.00  0.00  0.00  1.00  0.00  0.00  0.00  0.26  0.00
  YS02001788YS02001790    1.00   0.00  0.00  0.00  0.31  0.69  0.00  0.00  0.81  0.00
  YS02001790YS02001791    1.00   0.00  0.00  0.00  0.26  0.74  0.00  0.00  0.20  0.00
  YS02001791YS02001793    1.00   0.00  0.00  0.00  0.35  0.65  0.00  0.00  0.07  0.00
  YS02001910YS02001907    1.00   0.00  0.00  0.00  0.96  0.00  0.00  0.04  0.13  0.00
  YS02001786YS02001788    1.00   0.00  0.00  0.00  0.26  0.74  0.00  0.00  0.00  0.00
  YS02001915YS02001910    1.00   0.00  0.00  0.00  0.98  0.02  0.00  0.00  0.25  0.00
  YS02001918YS02001915    1.00   0.00  0.01  0.00  0.97  0.02  0.00  0.00  0.80  0.00
  YS02001923YS02001920    1.00   0.00  0.00  0.00  1.00  0.00  0.00  0.00  1.00  0.00
  YS02001926YS02001923    1.00   0.00  0.06  0.00  0.00  0.00  0.94  0.00  0.00  0.00
  YS02001929YS02001926    1.00   0.00  0.07  0.00  0.93  0.00  0.00  0.00  0.86  0.00
  YS02001920YS02001918    1.00   0.00  0.01  0.00  0.99  0.00  0.00  0.00  0.00  0.00
  YS02001629YS02163301    1.00   0.10  0.01  0.00  0.89  0.00  0.00  0.00  0.00  0.00
  YS02001619YS02001622    1.00   0.07  0.00  0.00  0.93  0.00  0.00  0.00  0.00  0.00
  YS02001622YS02001625    1.00   0.07  0.00  0.00  0.93  0.00  0.00  0.00  0.14  0.00
  YS02001625YS02001629    1.00   0.07  0.04  0.00  0.85  0.00  0.03  0.00  0.00  0.00
  YS02163301YS02001633    1.00   0.00  0.10  0.00  0.90  0.00  0.00  0.00  0.00  0.00
  YS02163601YS02164001    1.00   0.00  0.06  0.00  0.94  0.00  0.00  0.00  0.00  0.00
  YS02164001YS02001641    1.00   0.01  0.04  0.00  0.94  0.00  0.00  0.00  0.07  0.00
  YS02001641YS02001644    1.00   0.00  0.01  0.00  0.99  0.00  0.00  0.00  0.00  0.00
  YS02001647YS02001649    1.00   0.00  0.11  0.00  0.89  0.00  0.00  0.00  0.01  0.00
  YS02006553YS02006556    1.00   0.02  0.00  0.00  0.98  0.00  0.00  0.00  0.03  0.00
  YS02006556YS02006558    1.00   0.00  0.01  0.00  0.99  0.00  0.00  0.00  0.00  0.00
  YSB6556YSB1171          1.00   0.05  0.02  0.00  0.93  0.00  0.00  0.00  0.00  0.00
  YS02001907YS02006553    1.00   0.00  0.04  0.00  0.96  0.00  0.00  0.00  0.00  0.00
  YS02006558YS02006561    1.00   0.11  0.00  0.00  0.00  0.89  0.00  0.00  0.71  0.00
  YS02001633YS02163601    1.00   0.00  0.01  0.00  0.99  0.00  0.00  0.00  0.20  0.00
  YS02001644YS02001647    1.00   0.00  0.11  0.00  0.89  0.00  0.00  0.00  0.00  0.00
  YS02001745YS02001748    1.00   0.00  0.00  0.00  0.61  0.07  0.00  0.32  0.51  0.00
  YS02001748YS02001751    1.00   0.00  0.00  0.00  0.95  0.05  0.00  0.00  0.28  0.00
  YS02001751YS02001754    1.00   0.00  0.00  0.00  0.88  0.00  0.00  0.12  0.02  0.00
  YS02001754YS02001757    1.00   0.00  0.00  0.00  0.99  0.01  0.00  0.00  0.27  0.00
  YS02001882YS02001884    1.00   0.09  0.01  0.00  0.90  0.00  0.00  0.00  0.00  0.00
  YS02001884YS02001887    1.00   0.05  0.02  0.00  0.93  0.00  0.00  0.00  0.00  0.00
  YS02001890YS02001895    1.00   0.00  0.10  0.00  0.90  0.00  0.00  0.00  0.00  0.00
  YS02001895YS02001898    1.00   0.10  0.00  0.00  0.88  0.00  0.01  0.00  0.00  0.00
  YS02001898YS02001901    1.00   0.10  0.01  0.00  0.89  0.00  0.00  0.00  0.02  0.00
  YS02001901YS02001904    1.00   0.10  0.00  0.00  0.90  0.00  0.00  0.00  0.00  0.00
  YS02001904YS02001907    1.00   0.00  0.09  0.00  0.90  0.00  0.00  0.00  0.00  0.00
  YS02001887YS02001890    1.00   0.00  0.00  0.00  0.96  0.00  0.04  0.00  0.00  0.00
  YS02001652YS02001649    1.00   0.00  0.00  0.00  1.00  0.00  0.00  0.00  0.27  0.00
  YS02001655YS02001652    1.00   0.00  0.00  0.00  0.88  0.00  0.00  0.12  0.02  0.00
  YS02001658YS02001655    1.00   0.00  0.09  0.00  0.86  0.05  0.00  0.00  0.22  0.00
  YS02001661YS02001658    1.00   0.09  0.00  0.00  0.64  0.27  0.00  0.00  0.59  0.00
  YS02001664YS02001661    1.00   0.07  0.00  0.00  0.93  0.00  0.00  0.00  0.86  0.00
  YSB1154YSB6556          1.00   0.07  0.00  0.00  0.93  0.00  0.00  0.00  0.02  0.00
  YSB1174YSB1171          1.00   0.05  0.01  0.00  0.94  0.00  0.00  0.00  0.00  0.00
  YSB1171HS02004479       1.00   0.05  0.00  0.00  0.95  0.00  0.00  0.00  0.13  0.00
  HS02004881HS02006253    1.00   0.05  0.00  0.00  0.33  0.02  0.00  0.59  0.18  0.00
  YS02001793JiankangQianchi    1.00   0.00  0.00  0.00  0.83  0.16  0.00  0.00  0.54  0.00
  YS02001757CaochengTiaoxuchi    1.00   0.00  0.15  0.00  0.85  0.00  0.00  0.00  0.00  0.00
  WSF200WS02003060        1.00   0.00  0.10  0.00  0.58  0.33  0.00  0.00  0.48  0.00
  1                       1.00   0.00  0.00  0.00  0.00  1.00  0.00  0.00  0.31  0.00
  2                       1.00   1.00  0.00  0.00  0.00  0.00  0.00  0.00  0.00  0.00
  3                       1.00   0.56  0.00  0.00  0.00  0.44  0.00  0.00  0.39  0.00
  4                       1.00   1.00  0.00  0.00  0.00  0.00  0.00  0.00  0.00  0.00
  
  
  *************************
  Conduit Surcharge Summary
  *************************
  
  ----------------------------------------------------------------------------
                                                           Hours        Hours 
                         --------- Hours Full --------   Above Full   Capacity
  Conduit                Both Ends  Upstream  Dnstream   Normal Flow   Limited
  ----------------------------------------------------------------------------
  WS02006229WS02006228        0.01      0.01      0.01      0.50         0.01
  WS02006256WS02006235        3.71      3.72      6.30      2.19         0.01
  WS02006249WS02006248        0.01      0.01      0.01      0.86         0.01
  WS02006247WS02006245        0.01      0.01      0.01      1.57         0.01
  WS02006235WS02006234        0.01      0.01      0.01      3.65         0.01
  WS02006231WS02006230        0.01      0.01      0.01      3.95         0.01
  WS02006230WS02006229        0.01      0.16      0.01      4.62         0.01
  WS02006228WS02006109        0.01      0.01      0.01      1.50         0.01
  WS02006111WS02006112        0.01      0.01      0.54      0.01         0.01
  WS02004404WS02004405        0.01      0.01      0.01      4.07         0.01
  WS02003072WS02003073        0.01      0.01      0.01      0.19         0.01
  YS02001759YS02001757        3.45      3.45      4.25      0.01         0.01
  YS02001762YS02001759        3.25      3.25      3.45      0.01         0.01
  YS02001765YS02001762        2.72      2.72      3.25      0.01         0.01
  YS02001770YS02001767        1.55      1.56      1.82      0.01         0.01
  YS02001774YS02001770        1.02      1.02      3.13      0.01         0.01
  YS02001779YS02001774        0.01      0.01      3.13      0.01         0.01
  YS02001649YS02001757        3.31      3.31      4.25      0.01         0.01
  YS02001767YS02001765        1.82      1.82      2.72      0.01         0.01
  YS02001788YS02001790        0.01      0.01      0.88      0.01         0.01
  YS02001790YS02001791        0.88      0.88      1.07      0.01         0.01
  YS02001791YS02001793        1.07      1.07      1.71      0.01         0.01
  YS02001629YS02163301        0.77      0.77      1.10      0.01         0.01
  YS02163301YS02001633        1.10      1.10      2.73      0.01         0.01
  YS02163601YS02164001        2.69      2.69      3.28      0.01         0.01
  YS02164001YS02001641        2.69      2.69      2.88      0.01         0.01
  YS02001641YS02001644        2.88      2.88      2.94      0.01         0.04
  YS02001647YS02001649        0.01      0.01      3.31      0.01         0.01
  YS02001633YS02163601        2.34      2.34      3.28      0.01         0.01
  YS02001644YS02001647        0.01      0.01      2.94      0.01         0.01
  YS02001754YS02001757        0.01      0.01      4.25      0.01         0.01
  YS02001652YS02001649        0.01      0.01      3.31      0.01         0.01
  YS02001793JiankangQianchi        1.51      1.51      4.30      0.01         0.01
  YS02001757CaochengTiaoxuchi        0.01      0.01      4.25      0.01         0.01
  
  
  ***************
  Pumping Summary
  ***************
  
  ---------------------------------------------------------------------------------------------------------
                                                  Min       Avg       Max     Total     Power    % Time Off
                        Percent   Number of      Flow      Flow      Flow    Volume     Usage    Pump Curve
  Pump                 Utilized   Start-Ups       LPS       LPS       LPS  10^6 ltr     Kw-hr    Low   High
  ---------------------------------------------------------------------------------------------------------
  CC-Pump-1               12.77           3      0.00    110.03    199.97     0.360      1.16    0.0   33.3
  CC-Pump-2               25.51           4      0.00    149.30    200.00     0.960      3.26    0.0   33.3
  JK-Pump-1               21.27           5      0.00    165.23    300.00     0.775     10.23    0.0    0.0
  JK-Pump-2               36.15           7      0.00    157.32    300.00     1.219     12.47    0.0    0.0
  XR-Pump-1               82.97           6      0.00     70.91     95.00     1.625      8.12    0.0    0.0
  XR-Pump-2               12.78           3      0.00     47.21     94.82     0.171      0.90    0.0    0.0
  XR-Pump-3                4.26           1      0.00     42.09     94.90     0.057      0.26    0.0    0.0
  XR-Pump-4               63.80           8      0.00     53.65     95.00     0.997      4.78    0.0    0.0
  

  Analysis begun on:  Wed Jan  5 21:26:20 2022
  Analysis ended on:  Wed Jan  5 21:26:22 2022
  Total elapsed time: 00:00:02