
  EPA STORM WATER MANAGEMENT MODEL - VERSION 5.1 (Build 5.3.0.dev0)
  --------------------------------------------------------------

  WARNING 04: minimum elevation drop used for Conduit WS02004404WS02004405
  WARNING 03: negative offset ignored for Link YS02001904YS02001907
  
  *********************************************************
  NOTE: The summary statistics displayed in this report are
  based on results found at every computational time step,  
  not just on results from each reporting time step.
  *********************************************************
  
  ****************
  Analysis Options
  ****************
  Flow Units ............... LPS
  Process Models:
    Rainfall/Runoff ........ YES
    RDII ................... NO
    Snowmelt ............... NO
    Groundwater ............ NO
    Flow Routing ........... YES
    Ponding Allowed ........ NO
    Water Quality .......... NO
  Infiltration Method ...... HORTON
  Flow Routing Method ...... DYNWAVE
  Surcharge Method ......... EXTRAN
  Starting Date ............ 08/28/2015 08:00:00
  Ending Date .............. 08/28/2015 15:50:00
  Antecedent Dry Days ...... 8.0
  Report Time Step ......... 00:01:00
  Wet Time Step ............ 00:01:00
  Dry Time Step ............ 00:01:00
  Routing Time Step ........ 5.00 sec
  Variable Time Step ....... YES
  Maximum Trials ........... 8
  Number of Threads ........ 4
  Head Tolerance ........... 0.001500 m
  
  
  **************************        Volume         Depth
  Runoff Quantity Continuity     hectare-m            mm
  **************************     ---------       -------
  Total Precipitation ......         1.214         2.657
  Evaporation Loss .........         0.000         0.000
  Infiltration Loss ........         0.291         0.637
  Surface Runoff ...........         0.245         0.536
  Final Storage ............         0.678         1.485
  Continuity Error (%) .....        -0.012
  
  
  **************************        Volume        Volume
  Flow Routing Continuity        hectare-m      10^6 ltr
  **************************     ---------     ---------
  Dry Weather Inflow .......         0.616         6.165
  Wet Weather Inflow .......         0.245         2.445
  Groundwater Inflow .......         0.000         0.000
  RDII Inflow ..............         0.000         0.000
  External Inflow ..........         0.102         1.024
  External Outflow .........         0.512         5.123
  Flooding Loss ............         0.354         3.535
  Evaporation Loss .........         0.000         0.000
  Exfiltration Loss ........         0.000         0.000
  Initial Stored Volume ....         0.076         0.761
  Final Stored Volume ......         0.191         1.909
  Continuity Error (%) .....        -1.666
  
  
  *************************
  Highest Continuity Errors
  *************************
  Node HS02004842 (53.54%)
  Node YS02001884 (44.73%)
  Node YS02001774 (38.19%)
  Node YSB1171 (19.52%)
  Node HS02004901 (19.14%)
  
  
  ***************************
  Time-Step Critical Elements
  ***************************
  Link WS02006252WS02006251 (55.37%)
  Link 3 (13.58%)
  Link WS02006280WS02006229 (13.20%)
  Link WS02006238WS02006235 (5.37%)
  Link YS02001793JiankangQianchi (3.91%)
  
  
  ********************************
  Highest Flow Instability Indexes
  ********************************
  Link WS02006113WS02006111 (34)
  Link YS02001754YS02001757 (4)
  Link YS02001649YS02001757 (4)
  Link YS02001652YS02001649 (3)
  Link YS02001767YS02001765 (3)
  
  
  *************************
  Routing Time Step Summary
  *************************
  Minimum Time Step           :     0.10 sec
  Average Time Step           :     1.88 sec
  Maximum Time Step           :     5.00 sec
  Percent in Steady State     :    -0.00
  Average Iterations per Step :     2.02
  Percent Not Converging      :     0.01
  
  
  ***************************
  Subcatchment Runoff Summary
  ***************************
  
  ------------------------------------------------------------------------------------------------------------------------------
                            Total      Total      Total      Total     Imperv       Perv      Total       Total     Peak  Runoff
                           Precip      Runon       Evap      Infil     Runoff     Runoff     Runoff      Runoff   Runoff   Coeff
  Subcatchment                 mm         mm         mm         mm         mm         mm         mm    10^6 ltr      LPS
  ------------------------------------------------------------------------------------------------------------------------------
  sub0                       2.66       0.00       0.00       0.19       1.21       0.00       1.21        0.00     0.23   0.454
  sub1                       2.66       0.00       0.00       0.29       1.12       0.00       1.12        0.01     1.30   0.420
  sub2                       2.66       0.00       0.00       0.98       0.78       0.00       0.78        0.01     1.16   0.292
  sub3                       2.66       0.00       0.00       0.98       0.75       0.00       0.75        0.02     2.43   0.282
  sub4                       2.66       0.00       0.00       0.29       1.02       0.00       1.02        0.02     2.74   0.382
  sub5                       2.66       0.00       0.00       0.19       1.17       0.00       1.17        0.01     2.31   0.439
  sub7                       2.66       0.00       0.00       0.24       1.16       0.00       1.16        0.00     0.79   0.438
  sub8                       2.66       0.00       0.00       0.24       1.16       0.00       1.16        0.01     1.42   0.435
  sub9                       2.66       0.00       0.00       0.24       1.16       0.00       1.16        0.01     1.05   0.435
  sub10                      2.66       0.00       0.00       0.21       1.16       0.00       1.16        0.01     2.30   0.436
  sub11                      2.66       0.00       0.00       0.21       1.17       0.00       1.17        0.01     2.66   0.441
  sub12                      2.66       0.00       0.00       0.35       1.12       0.00       1.12        0.01     2.19   0.423
  sub14                      2.66       0.00       0.00       0.24       1.15       0.00       1.15        0.01     2.06   0.434
  sub15                      2.66       0.00       0.00       0.80       0.89       0.00       0.89        0.02     2.80   0.333
  sub16                      2.66       0.00       0.00       0.88       0.86       0.00       0.86        0.01     1.94   0.325
  sub17                      2.66       0.00       0.00       0.85       0.87       0.00       0.87        0.01     1.57   0.329
  sub22                      2.66       0.00       0.00       1.14       0.73       0.00       0.73        0.05     9.06   0.274
  sub23                      2.66       0.00       0.00       0.98       0.81       0.00       0.81        0.04     7.70   0.303
  sub60                      2.66       0.00       0.00       0.32       0.56       0.00       0.56        0.17    13.03   0.212
  sub61                      2.66       0.00       0.00       0.45       0.65       0.00       0.65        0.20    17.11   0.244
  sub62                      2.66       0.00       0.00       0.21       0.68       0.00       0.68        0.21    17.28   0.256
  sub63                      2.66       0.00       0.00       0.77       0.59       0.00       0.59        0.18    16.18   0.223
  sub64                      2.66       0.00       0.00       0.40       0.54       0.00       0.54        0.16    12.33   0.202
  sub65                      2.66       0.00       0.00       0.35       0.54       0.00       0.54        0.17    12.47   0.203
  sub66                      2.66       0.00       0.00       0.77       0.48       0.00       0.48        0.15    11.48   0.180
  sub67                      2.66       0.00       0.00       0.21       0.80       0.00       0.80        0.25    22.88   0.301
  sub68                      2.66       0.00       0.00       0.37       0.70       0.00       0.70        0.22    19.08   0.264
  sub69                      2.66       0.00       0.00       0.40       0.82       0.00       0.82        0.19    19.34   0.307
  sub70                      2.66       0.83       0.00       1.19       0.82       0.00       0.82        0.19    12.35   0.234
  sub71                      2.66       0.00       0.00       0.21       0.63       0.00       0.63        0.15    11.87   0.238
  sub72                      2.66       0.00       0.00       0.19       0.39       0.00       0.39        0.08     5.14   0.146
  sub73                      2.66       0.79       0.00       1.17       0.74       0.00       0.74        0.17    10.77   0.214
  sub74                      2.66       0.00       0.00       1.99       0.25       0.00       0.25        0.10    10.79   0.095
  
  
  ******************
  Node Depth Summary
  ******************
  
  ---------------------------------------------------------------------------------
                                 Average  Maximum  Maximum  Time of Max    Reported
                                   Depth    Depth      HGL   Occurrence   Max Depth
  Node                 Type       Meters   Meters   Meters  days hr:min      Meters
  ---------------------------------------------------------------------------------
  WS02001211           JUNCTION     0.48     0.60     5.44     0  00:11        0.60
  WS02001212           JUNCTION     0.23     0.33     5.39     0  00:12        0.33
  WS02001213           JUNCTION     0.42     0.52     5.29     0  04:52        0.52
  WS02003069           JUNCTION     0.25     0.33     4.91     0  04:53        0.32
  WS02003072           JUNCTION     0.31     0.40     4.77     0  04:54        0.40
  WS02003073           JUNCTION     0.18     0.23     4.30     0  04:55        0.23
  WS02003060           JUNCTION     0.22     0.29     5.23     0  04:53        0.29
  WS02003066           JUNCTION     0.15     0.22     5.77     0  07:07        0.22
  WS02003059           JUNCTION     0.49     0.59     5.27     0  04:53        0.59
  WS02003067           JUNCTION     0.40     0.55     5.87     0  07:06        0.55
  WS02004401           JUNCTION     0.45     0.62     6.62     0  07:01        0.62
  WS02004402           JUNCTION     0.49     0.66     6.62     0  07:02        0.66
  WS02004403           JUNCTION     0.51     0.68     6.61     0  07:02        0.68
  WS02004404           JUNCTION     0.59     0.76     6.61     0  07:02        0.76
  WS02004406           JUNCTION     0.60     0.77     6.60     0  07:02        0.77
  WS02004409           JUNCTION     0.26     0.42     6.19     0  07:05        0.42
  WS02004410           JUNCTION     0.29     0.45     6.17     0  07:06        0.45
  WS02004411           JUNCTION     0.31     0.47     6.15     0  07:06        0.47
  WS02004412           JUNCTION     0.34     0.49     6.13     0  07:06        0.49
  WS02004413           JUNCTION     0.50     0.66     6.13     0  07:06        0.66
  WS02004405           JUNCTION     0.59     0.76     6.61     0  07:02        0.76
  WS02006109           JUNCTION     0.51     0.74     7.36     0  06:56        0.74
  WS02006110           JUNCTION     0.53     0.74     7.33     0  06:56        0.74
  WS02006111           JUNCTION     0.12     0.22     6.92     0  06:57        0.22
  WS02006112           JUNCTION     0.59     0.78     6.66     0  07:01        0.78
  WS02006113           JUNCTION     0.18     0.34     7.23     0  06:57        0.34
  WS02006115           JUNCTION     0.33     0.50     6.64     0  07:01        0.50
  WS02006116           JUNCTION     0.42     0.59     6.63     0  07:01        0.59
  WS02006230           JUNCTION     0.41     0.69     7.43     0  06:56        0.69
  WS02006231           JUNCTION     0.25     0.48     7.60     0  06:54        0.48
  WS02006232           JUNCTION     0.36     0.63     7.67     0  06:55        0.63
  WS02006234           JUNCTION     0.25     0.54     7.70     0  06:54        0.54
  WS02006235           JUNCTION     0.28     0.57     7.74     0  06:54        0.57
  WS02006238           JUNCTION     0.31     0.60     7.75     0  06:54        0.60
  WS02006240           JUNCTION     0.21     0.54     7.83     0  06:53        0.54
  WS02006242           JUNCTION     0.26     0.62     7.89     0  06:53        0.62
  WS02006243           JUNCTION     0.16     0.51     7.93     0  06:52        0.51
  WS02006245           JUNCTION     0.17     0.52     8.00     0  06:51        0.52
  WS02006247           JUNCTION     0.20     0.55     8.05     0  06:51        0.55
  WS02006248           JUNCTION     0.16     0.51     8.09     0  06:51        0.51
  WS02006249           JUNCTION     0.20     0.55     8.15     0  06:51        0.55
  WS02006239           JUNCTION     0.25     0.58     7.79     0  06:54        0.58
  WS02006251           JUNCTION     0.19     0.57     8.24     0  06:50        0.57
  WS02006252           JUNCTION     0.18     0.58     8.83     0  06:50        0.58
  WS02006253           JUNCTION     0.21     0.61     8.25     0  06:50        0.59
  WS02006256           JUNCTION     0.60     1.11     8.04     0  04:10        1.11
  WS02004138           JUNCTION     0.08     0.14     7.39     0  00:00        0.14
  WS02004407           JUNCTION     0.12     0.20     6.51     0  07:02        0.20
  WS02006228           JUNCTION     0.48     0.73     7.38     0  06:56        0.73
  WS02006229           JUNCTION     0.44     0.70     7.39     0  06:56        0.70
  WS02006280           JUNCTION     0.04     0.07     8.34     0  02:44        0.07
  WS02006284           JUNCTION     0.32     0.37     8.77     0  02:44        0.37
  WS02006287           JUNCTION     0.05     0.10     9.05     0  02:43        0.10
  WSF200               JUNCTION     0.11     0.19     5.42     0  07:07        0.19
  HS02004901           JUNCTION     0.09     0.14     9.96     0  02:43        0.14
  HS02004881           JUNCTION     0.00     0.01     9.04     0  02:41        0.01
  HS02004876           JUNCTION     0.02     0.05     9.08     0  02:41        0.05
  HS02004870           JUNCTION     0.01     0.01     9.30     0  02:39        0.01
  HS02004862           JUNCTION     0.01     0.02     9.40     0  02:42        0.02
  HS02004856           JUNCTION     0.06     0.08     9.51     0  02:40        0.08
  HS02004852           JUNCTION     0.00     0.01     9.52     0  02:42        0.01
  HS02004848           JUNCTION     0.00     0.01     9.61     0  02:36        0.01
  HS02004842           JUNCTION     0.32     0.34     9.61     0  02:37        0.34
  HS02004837           JUNCTION     0.02     0.03     9.61     0  02:36        0.03
  HS02004830           JUNCTION     0.03     0.04     9.51     0  02:37        0.04
  HS02004824           JUNCTION     0.01     0.02     9.42     0  02:41        0.02
  HS02004817           JUNCTION     0.39     0.45     9.29     0  02:43        0.45
  HS02004807           JUNCTION     0.09     0.12     9.29     0  02:43        0.12
  HS02004802           JUNCTION     0.13     0.16     9.29     0  02:43        0.16
  HS02004799           JUNCTION     0.08     0.13     9.34     0  02:41        0.13
  HS02004792           JUNCTION     0.01     0.03     9.56     0  02:40        0.03
  HS02004788           JUNCTION     0.01     0.03     9.92     0  02:43        0.03
  HS02004785           JUNCTION     0.02     0.05     9.96     0  02:44        0.05
  HS02004777           JUNCTION     0.11     0.16     9.96     0  02:43        0.16
  HS02004770           JUNCTION     0.08     0.13     9.96     0  02:42        0.13
  HS02004480           JUNCTION     0.04     0.09     9.33     0  02:42        0.09
  HS02004479           JUNCTION     0.08     0.13     9.33     0  02:42        0.13
  HS02004478           JUNCTION     0.04     0.06     9.29     0  02:43        0.06
  YS02001745           JUNCTION     0.04     0.05     7.57     0  03:01        0.05
  YS02001748           JUNCTION     0.04     0.06     7.13     0  03:01        0.06
  YS02001751           JUNCTION     0.12     0.18     7.06     0  06:43        0.18
  YS02001754           JUNCTION     0.34     0.46     7.07     0  06:42        0.46
  YS02001762           JUNCTION     0.52     0.66     7.06     0  06:44        0.66
  YS02001765           JUNCTION     0.48     0.61     7.06     0  06:44        0.61
  YS02001767           JUNCTION     0.45     0.57     7.06     0  06:44        0.57
  YS02001770           JUNCTION     0.44     0.56     7.06     0  06:44        0.56
  YS02001774           JUNCTION     0.50     0.64     7.06     0  06:43        0.63
  YS02001779           JUNCTION     0.28     0.37     7.06     0  06:45        0.37
  YS02001882           JUNCTION     0.15     0.21     6.93     0  03:04        0.21
  YS02001884           JUNCTION     0.24     0.31     6.93     0  03:04        0.31
  YS02001759           JUNCTION     0.55     0.69     7.06     0  06:44        0.69
  YS02001887           JUNCTION     0.32     0.39     6.93     0  03:04        0.39
  YS02001890           JUNCTION     0.35     0.42     6.93     0  03:05        0.42
  YS02001898           JUNCTION     0.13     0.18     6.92     0  03:05        0.18
  YS02001901           JUNCTION     0.24     0.31     6.92     0  03:06        0.31
  YS02001904           JUNCTION     0.22     0.29     6.92     0  03:06        0.29
  YS02001907           JUNCTION     0.53     0.63     6.92     0  03:05        0.63
  YS02001910           JUNCTION     0.33     0.41     6.92     0  03:05        0.41
  YS02001915           JUNCTION     0.15     0.20     6.92     0  03:06        0.20
  YS02001918           JUNCTION     0.04     0.05     7.11     0  03:07        0.05
  YS02001619           JUNCTION     0.09     0.13     7.06     0  06:45        0.13
  YS02001629           JUNCTION     0.39     0.51     7.06     0  06:45        0.51
  YS02001641           JUNCTION     0.49     0.62     7.06     0  06:44        0.62
  YS02001644           JUNCTION     0.50     0.63     7.06     0  06:44        0.63
  YS02001652           JUNCTION     0.35     0.47     7.06     0  06:43        0.46
  YS02001655           JUNCTION     0.15     0.21     7.06     0  06:43        0.21
  YS02001920           JUNCTION     0.12     0.13     7.14     0  03:06        0.13
  YS02001923           JUNCTION     0.03     0.04     7.30     0  03:04        0.04
  YS02001926           JUNCTION     0.07     0.09     7.54     0  03:04        0.09
  YS02001929           JUNCTION     0.03     0.04     7.73     0  03:01        0.04
  YS02001658           JUNCTION     0.04     0.06     7.20     0  03:01        0.06
  YS02001661           JUNCTION     0.10     0.13     7.53     0  03:01        0.13
  YS02001664           JUNCTION     0.03     0.05     7.98     0  03:01        0.05
  YS02001622           JUNCTION     0.11     0.15     7.06     0  06:45        0.15
  YS02001633           JUNCTION     0.48     0.60     7.06     0  06:45        0.60
  YS02001649           JUNCTION     0.53     0.67     7.06     0  06:44        0.67
  YS02001757           JUNCTION     0.65     0.80     7.06     0  06:44        0.80
  YS02001895           JUNCTION     0.12     0.18     6.93     0  03:04        0.18
  YS02001625           JUNCTION     0.36     0.45     7.06     0  06:46        0.45
  YS02163301           JUNCTION     0.42     0.54     7.06     0  06:45        0.54
  YS02163601           JUNCTION     0.53     0.66     7.06     0  06:44        0.66
  YS02164001           JUNCTION     0.47     0.60     7.06     0  06:44        0.60
  YS02001647           JUNCTION     0.34     0.45     7.06     0  06:43        0.44
  YSB1154              JUNCTION     0.21     0.27     9.33     0  02:42        0.27
  YSB6556              JUNCTION     0.11     0.16     9.33     0  02:42        0.16
  YSB1174              JUNCTION     0.16     0.22     9.33     0  02:42        0.22
  YSB1171              JUNCTION     0.36     0.43     9.33     0  02:42        0.43
  YS02006553           JUNCTION     0.54     0.63     6.92     0  03:05        0.63
  YS02006561           JUNCTION     0.07     0.10     6.76     0  03:06        0.10
  YS02006556           JUNCTION     0.51     0.61     6.92     0  03:06        0.61
  YS02006558           JUNCTION     0.56     0.65     6.92     0  03:06        0.65
  YS02001783           JUNCTION     0.11     0.16     6.30     0  03:06        0.16
  YS02001784           JUNCTION     0.14     0.20     6.26     0  03:07        0.20
  YS02001786           JUNCTION     0.12     0.17     6.20     0  03:07        0.17
  YS02001788           JUNCTION     0.08     0.12     6.09     0  03:08        0.12
  YS02001790           JUNCTION     0.10     0.14     5.79     0  03:08        0.14
  YS02001791           JUNCTION     0.07     0.10     5.57     0  03:08        0.10
  YS02001793           JUNCTION     0.04     0.07     4.90     0  03:11        0.06
  WS02004139           JUNCTION     0.41     0.54     5.45     0  00:11        0.54
  WSC                  OUTFALL      0.17     0.23     0.90     0  04:55        0.23
  3                    OUTFALL      0.01     0.11     6.11     0  04:10        0.11
  4                    OUTFALL      0.00     0.05     7.05     0  06:51        0.05
  5                    OUTFALL      0.00     0.00     5.00     0  00:00        0.00
  JK-storage           STORAGE      0.58     3.00     3.80     0  00:10        3.00
  CC-storage           STORAGE      0.01     0.05     7.05     0  06:40        0.05
  XR-storage           STORAGE      7.55     7.72     5.72     0  00:56        7.72
  
  
  *******************
  Node Inflow Summary
  *******************
  
  -------------------------------------------------------------------------------------------------
                                  Maximum  Maximum                  Lateral       Total        Flow
                                  Lateral    Total  Time of Max      Inflow      Inflow     Balance
                                   Inflow   Inflow   Occurrence      Volume      Volume       Error
  Node                 Type           LPS      LPS  days hr:min    10^6 ltr    10^6 ltr     Percent
  -------------------------------------------------------------------------------------------------
  WS02001211           JUNCTION      7.35   191.30     0  00:10       0.207        2.25       0.409
  WS02001212           JUNCTION      0.00   186.12     0  00:11           0        2.25       0.185
  WS02001213           JUNCTION      0.00   184.80     0  00:12           0        2.24       0.334
  WS02003069           JUNCTION      0.32   334.08     0  04:53     0.00902        4.91       0.110
  WS02003072           JUNCTION      0.00   333.24     0  04:53           0         4.9       0.196
  WS02003073           JUNCTION      1.82   334.64     0  04:54      0.0514        4.94       0.179
  WS02003060           JUNCTION     16.53   334.03     0  04:52       0.466        4.91       0.112
  WS02003066           JUNCTION      0.00   233.30     0  07:07           0        2.22       0.070
  WS02003059           JUNCTION      0.00   181.52     0  04:52           0        2.24       0.696
  WS02003067           JUNCTION      0.00   233.31     0  07:06           0        2.22       0.204
  WS02004401           JUNCTION      0.00   277.29     0  06:58           0        2.33       0.466
  WS02004402           JUNCTION      0.00   261.69     0  06:58           0        2.32       0.472
  WS02004403           JUNCTION      0.00   255.47     0  07:00           0        2.31       0.460
  WS02004404           JUNCTION      0.16   253.61     0  07:01     0.00457        2.31       0.379
  WS02004406           JUNCTION      0.00   252.07     0  07:02           0        2.29       0.948
  WS02004409           JUNCTION      0.00   251.61     0  07:02           0        2.26       0.152
  WS02004410           JUNCTION      0.00   245.92     0  07:03           0        2.26       0.233
  WS02004411           JUNCTION      0.00   240.64     0  07:04           0        2.25       0.288
  WS02004412           JUNCTION      0.00   236.93     0  07:05           0        2.25       0.375
  WS02004413           JUNCTION      0.00   234.19     0  07:05           0        2.24       0.652
  WS02004405           JUNCTION      0.04   252.80     0  07:01     0.00107         2.3       0.571
  WS02006109           JUNCTION      1.23   313.92     0  06:56      0.0347        2.37       0.121
  WS02006110           JUNCTION      0.00   312.89     0  06:56           0        2.37       0.397
  WS02006111           JUNCTION      0.00   315.12     0  06:57           0        2.36       0.039
  WS02006112           JUNCTION      1.57   311.13     0  06:57     0.00749        2.37       0.747
  WS02006113           JUNCTION      0.00   311.91     0  06:56           0        2.36       0.079
  WS02006115           JUNCTION      0.00   304.70     0  06:57           0        2.35       0.328
  WS02006116           JUNCTION      0.00   292.32     0  06:57           0        2.34       0.282
  WS02006230           JUNCTION     10.28   307.63     0  06:54        0.29        1.96       0.232
  WS02006231           JUNCTION      0.00   297.88     0  06:54           0        1.67      -0.066
  WS02006232           JUNCTION      0.00   299.24     0  06:53           0        1.67       0.315
  WS02006234           JUNCTION      0.00   303.57     0  06:53           0        1.67      -0.343
  WS02006235           JUNCTION      0.00   309.66     0  06:52           0        1.73       0.417
  WS02006238           JUNCTION      0.00   311.27     0  06:53           0        1.04      -0.699
  WS02006240           JUNCTION      0.00   324.74     0  06:52           0       0.983      -0.020
  WS02006242           JUNCTION      0.00   332.83     0  06:51           0       0.965       0.204
  WS02006243           JUNCTION      0.00   340.31     0  06:51           0       0.952      -0.164
  WS02006245           JUNCTION      0.00   344.80     0  06:51           0       0.957       0.797
  WS02006247           JUNCTION      0.00   349.19     0  06:51           0       0.958       0.181
  WS02006248           JUNCTION      0.00   353.08     0  06:50           0       0.955      -0.312
  WS02006249           JUNCTION      0.00   381.52     0  06:50           0       0.965       0.675
  WS02006239           JUNCTION      0.00   313.64     0  06:52           0        1.01      -0.805
  WS02006251           JUNCTION      0.08   399.75     0  06:50     0.00217       0.994      -0.108
  WS02006252           JUNCTION      0.00   399.34     0  06:50           0       0.924       0.025
  WS02006253           JUNCTION      0.23    28.35     0  06:41    0.000977      0.0684       0.362
  WS02006256           JUNCTION      0.00   300.00     0  04:10           0         0.9       0.211
  WS02004138           JUNCTION      0.00   190.00     0  00:00           0        2.05       0.044
  WS02004407           JUNCTION      0.00   251.73     0  07:02           0        2.26       0.069
  WS02006228           JUNCTION      0.00   314.18     0  06:55           0        2.34       0.206
  WS02006229           JUNCTION      0.00   315.92     0  06:55           0        2.35       0.301
  WS02006280           JUNCTION      0.00    44.27     0  02:44           0       0.398       0.019
  WS02006284           JUNCTION      0.10    44.27     0  02:43      0.0027       0.399       0.298
  WS02006287           JUNCTION      0.00    44.18     0  02:43           0       0.397       0.174
  WSF200               JUNCTION      0.00   233.29     0  07:07           0        2.22       0.044
  HS02004901           JUNCTION      1.94     1.94     0  02:28     0.00903     0.00917      23.666
  HS02004881           JUNCTION      0.79     6.59     0  02:40     0.00392      0.0406       0.171
  HS02004876           JUNCTION      1.30     5.88     0  02:38     0.00742      0.0371       1.367
  HS02004870           JUNCTION      1.42     4.60     0  02:38     0.00739      0.0298       0.345
  HS02004862           JUNCTION      1.36     3.25     0  02:39      0.0129      0.0226       0.718
  HS02004856           JUNCTION      1.05     1.89     0  02:38     0.00555      0.0112      14.709
  HS02004852           JUNCTION      0.00     0.89     0  02:40           0     0.00564       0.735
  HS02004848           JUNCTION      2.43     2.43     0  02:40      0.0169      0.0169       0.223
  HS02004842           JUNCTION      0.00     4.48     0  00:03           0      0.0243     115.260
  HS02004837           JUNCTION      8.65    10.16     0  02:36       0.192       0.203       0.401
  HS02004830           JUNCTION      0.15    10.31     0  02:36     0.00423       0.193       0.639
  HS02004824           JUNCTION      2.79    13.09     0  02:40      0.0226       0.215       0.250
  HS02004817           JUNCTION      0.60    13.69     0  02:41      0.0169       0.231       7.759
  HS02004807           JUNCTION      2.66    16.16     0  02:40      0.0136       0.228       1.883
  HS02004802           JUNCTION      0.00    16.14     0  02:43           0       0.224       1.844
  HS02004799           JUNCTION      2.06    23.98     0  02:40       0.011       0.168       1.331
  HS02004792           JUNCTION      9.34    22.00     0  02:39      0.0538       0.158       0.268
  HS02004788           JUNCTION      4.47    13.23     0  02:42      0.0623       0.105       0.375
  HS02004785           JUNCTION      0.15     8.95     0  02:41     0.00423       0.045       1.052
  HS02004777           JUNCTION      0.03     8.99     0  02:37    0.000846      0.0452      12.896
  HS02004770           JUNCTION      7.70     9.35     0  02:32      0.0384      0.0458       7.251
  HS02004480           JUNCTION      0.00    28.08     0  02:41           0       0.189       0.308
  HS02004479           JUNCTION      0.00     4.15     0  02:43           0      0.0329       2.255
  HS02004478           JUNCTION      0.00    44.18     0  02:43           0       0.398       0.186
  YS02001745           JUNCTION     13.04    13.04     0  03:01       0.171       0.171       0.111
  YS02001748           JUNCTION      0.04    13.07     0  03:01     0.00127       0.172       0.057
  YS02001751           JUNCTION      0.01    15.54     0  06:08     0.00031       0.186       1.244
  YS02001754           JUNCTION      0.26    52.34     0  06:15     0.00733       0.267       3.888
  YS02001762           JUNCTION      0.00    23.80     0  03:19           0       0.205       7.302
  YS02001765           JUNCTION      0.00    26.51     0  06:54           0       0.197       8.036
  YS02001767           JUNCTION      0.54    20.19     0  03:20      0.0151       0.203      10.694
  YS02001770           JUNCTION     17.43    20.36     0  03:20       0.213       0.221       8.180
  YS02001774           JUNCTION      0.00    10.59     0  03:06           0      0.0393      61.784
  YS02001779           JUNCTION      0.01     5.91     0  03:05    0.000141      0.0162      49.196
  YS02001882           JUNCTION      0.00     1.11     0  02:08           0     0.00189     137.544
  YS02001884           JUNCTION      0.00     3.43     0  02:11           0     0.00804      80.931
  YS02001759           JUNCTION     17.15    38.20     0  03:19       0.201       0.379       4.447
  YS02001887           JUNCTION     23.33    23.33     0  03:01       0.259       0.262       2.252
  YS02001890           JUNCTION      0.00    22.92     0  03:01           0       0.249       2.644
  YS02001898           JUNCTION      0.00    22.70     0  03:03           0        0.24       0.564
  YS02001901           JUNCTION      0.00    22.74     0  03:04           0        0.24       1.773
  YS02001904           JUNCTION      0.00    22.65     0  03:05           0        0.24       1.662
  YS02001907           JUNCTION      0.00    42.25     0  03:06           0       0.537       3.847
  YS02001910           JUNCTION      0.00    19.78     0  03:03           0       0.307       2.846
  YS02001915           JUNCTION     11.89    19.81     0  03:01        0.15       0.309       0.970
  YS02001918           JUNCTION      0.00     8.06     0  03:06           0        0.16       0.336
  YS02001619           JUNCTION     11.48    11.48     0  03:01       0.146       0.146       0.450
  YS02001629           JUNCTION      0.00    15.20     0  03:15           0        0.13       4.987
  YS02001641           JUNCTION      0.00    33.72     0  03:15           0        0.26       5.175
  YS02001644           JUNCTION     12.37    45.58     0  03:15       0.164       0.406       4.003
  YS02001652           JUNCTION      0.00    19.11     0  03:18           0       0.185       5.320
  YS02001655           JUNCTION      0.15    16.31     0  03:01     0.00434       0.183       1.838
  YS02001920           JUNCTION      2.87     8.06     0  03:04      0.0809       0.161       0.831
  YS02001923           JUNCTION      0.04     5.19     0  03:04     0.00106      0.0805       0.160
  YS02001926           JUNCTION      0.05     5.19     0  03:01     0.00147      0.0804       1.221
  YS02001929           JUNCTION      5.14     5.14     0  03:01      0.0791      0.0791       0.143
  YS02001658           JUNCTION      0.00    16.16     0  03:01           0       0.179       0.077
  YS02001661           JUNCTION      0.00    16.17     0  03:01           0       0.179       0.331
  YS02001664           JUNCTION     16.18    16.18     0  03:01        0.18        0.18       0.056
  YS02001622           JUNCTION      0.00    11.63     0  03:15           0       0.146       1.992
  YS02001633           JUNCTION     12.67    29.64     0  03:15       0.171       0.287       6.906
  YS02001649           JUNCTION      0.00    60.10     0  03:15           0       0.542       4.601
  YS02001757           JUNCTION      0.00   131.09     0  06:53           0        1.08       6.931
  YS02001895           JUNCTION      0.00    22.74     0  03:01           0       0.242       0.920
  YS02001625           JUNCTION      0.00    13.59     0  03:14           0       0.143      11.176
  YS02163301           JUNCTION      0.00    16.78     0  03:15           0        0.13      10.555
  YS02163601           JUNCTION      0.11    31.21     0  03:14      0.0031       0.269       7.799
  YS02164001           JUNCTION      0.00    33.95     0  03:14           0       0.258       4.811
  YS02001647           JUNCTION      0.00    48.86     0  03:15           0        0.38       3.356
  YSB1154              JUNCTION      2.31     2.31     0  02:33      0.0132      0.0147      10.881
  YSB6556              JUNCTION      0.00     2.29     0  02:38           0      0.0158       8.502
  YSB1174              JUNCTION      2.19     2.19     0  02:28     0.00982      0.0109      13.346
  YSB1171              JUNCTION      0.00     4.19     0  02:38           0      0.0323      24.252
  YS02006553           JUNCTION      0.00    42.32     0  03:07           0       0.524       2.539
  YS02006561           JUNCTION      0.00    61.49     0  03:06           0       0.723       0.047
  YS02006556           JUNCTION      0.00    42.36     0  03:07           0       0.525       1.792
  YS02006558           JUNCTION     19.96    61.51     0  03:06        0.24       0.745       0.532
  YS02001783           JUNCTION      0.00    61.48     0  03:06           0       0.723       0.110
  YS02001784           JUNCTION      1.06    62.53     0  03:06      0.0299       0.752       0.187
  YS02001786           JUNCTION      0.06    62.57     0  03:07     0.00159       0.752       0.191
  YS02001788           JUNCTION      0.07    62.64     0  03:07       0.002       0.753       0.099
  YS02001790           JUNCTION      0.15    62.79     0  03:08     0.00437       0.756       0.130
  YS02001791           JUNCTION      0.00    62.79     0  03:08           0       0.755       0.064
  YS02001793           JUNCTION      0.00    64.69     0  03:11           0       0.755       0.018
  WS02004139           JUNCTION      0.32   193.01     0  00:00     0.00905        2.06       0.644
  WSC                  OUTFALL       0.00   333.98     0  04:55           0        4.93       0.000
  3                    OUTFALL       0.00   172.08     0  04:10           0       0.186       0.000
  4                    OUTFALL       0.00    26.70     0  06:51           0     0.00359       0.000
  5                    OUTFALL       0.00     0.00     0  00:00           0           0       0.000 ltr
  JK-storage           STORAGE       0.00    64.26     0  03:11           0       0.905      -6.770
  CC-storage           STORAGE       0.00    99.69     0  03:40           0       0.929      -8.333
  XR-storage           STORAGE     221.55   221.55     0  03:01        5.91        6.51       0.002
  
  
  **********************
  Node Surcharge Summary
  **********************
  
  Surcharging occurs when water rises above the top of the highest conduit.
  ---------------------------------------------------------------------
                                               Max. Height   Min. Depth
                                   Hours       Above Crown    Below Rim
  Node                 Type      Surcharged         Meters       Meters
  ---------------------------------------------------------------------
  WS02006252           JUNCTION        0.18          0.185        0.915
  
  
  *********************
  Node Flooding Summary
  *********************
  
  Flooding refers to all water that overflows a node, whether it ponds or not.
  --------------------------------------------------------------------------
                                                             Total   Maximum
                                 Maximum   Time of Max       Flood    Ponded
                        Hours       Rate    Occurrence      Volume     Depth
  Node                 Flooded       LPS   days hr:min    10^6 ltr    Meters
  --------------------------------------------------------------------------
  XR-storage              6.90    220.22      0  03:10       3.536     0.000
  
  
  **********************
  Storage Volume Summary
  **********************
  
  --------------------------------------------------------------------------------------------------
                         Average     Avg  Evap Exfil       Maximum     Max    Time of Max    Maximum
                          Volume    Pcnt  Pcnt  Pcnt        Volume    Pcnt     Occurrence    Outflow
  Storage Unit           1000 m3    Full  Loss  Loss       1000 m3    Full    days hr:min        LPS
  --------------------------------------------------------------------------------------------------
  JK-storage               0.029      10     0     0         0.151      52       0  00:10     300.00
  CC-storage               0.024       0     0     0         0.145       1       0  06:40     399.34
  XR-storage               0.907      98     0     0         0.926     100       0  00:56     190.00
  
  
  ***********************
  Outfall Loading Summary
  ***********************
  
  -----------------------------------------------------------
                         Flow       Avg       Max       Total
                         Freq      Flow      Flow      Volume
  Outfall Node           Pcnt       LPS       LPS    10^6 ltr
  -----------------------------------------------------------
  WSC                   99.99    199.27    333.98       4.933
  3                     15.90     97.51    172.08       0.186
  4                      2.60      9.92     26.70       0.004
  5                      0.00      0.00      0.00       0.000
  -----------------------------------------------------------
  System                29.62    306.70    423.20       5.123
  
  
  ********************
  Link Flow Summary
  ********************
  
  -----------------------------------------------------------------------------
                                 Maximum  Time of Max   Maximum    Max/    Max/
                                  |Flow|   Occurrence   |Veloc|    Full    Full
  Link                 Type          LPS  days hr:min     m/sec    Flow   Depth
  -----------------------------------------------------------------------------
  WS02003066WSF200     CONDUIT    233.29     0  07:07      2.28    0.04    0.15
  WS02006287WS02006284 CONDUIT     44.18     0  02:43      0.92    0.02    0.11
  WS02006284WS02006280 CONDUIT     44.27     0  02:44      1.18    0.02    0.09
  WS02006280WS02006229 CONDUIT     44.27     0  02:44      1.88    0.01    0.07
  WS02006229WS02006228 CONDUIT    314.18     0  06:55      0.69    1.04    0.87
  WS02006256WS02006235 CONDUIT    149.95     0  00:15      2.14    1.59    1.00
  WS02006253WS02006251 CONDUIT     88.09     0  03:39      0.46    0.26    0.83
  WS02006252WS02006251 CONDUIT    399.68     0  06:50      3.18    1.47    1.00
  WS02006251WS02006249 CONDUIT    381.52     0  06:50      1.15    1.10    0.80
  WS02006249WS02006248 CONDUIT    353.08     0  06:50      1.18    1.93    0.74
  WS02006248WS02006247 CONDUIT    349.19     0  06:51      1.15    0.76    0.75
  WS02006247WS02006245 CONDUIT    344.80     0  06:51      1.13    2.73    0.76
  WS02006245WS02006243 CONDUIT    340.31     0  06:51      1.18    1.01    0.73
  WS02006243WS02006242 CONDUIT    332.83     0  06:51      1.06    0.71    0.79
  WS02006242WS02006240 CONDUIT    324.74     0  06:52      0.99    1.29    0.82
  WS02006240WS02006239 CONDUIT    313.64     0  06:52      1.06    0.99    0.77
  WS02006239WS02006238 CONDUIT    311.27     0  06:53      0.95    1.00    0.83
  WS02006238WS02006235 CONDUIT    309.43     0  06:52      0.94    0.69    0.84
  WS02006235WS02006234 CONDUIT    303.57     0  06:53      1.07    3.20    0.77
  WS02006234WS02006232 CONDUIT    299.24     0  06:53      0.88    0.61    0.83
  WS02006232WS02006231 CONDUIT    297.88     0  06:54      0.92    0.62    0.78
  WS02006231WS02006230 CONDUIT    297.35     0  06:54      1.27    4.51    0.58
  WS02006230WS02006229 CONDUIT    305.56     0  06:55      0.83    6.80    0.95
  WS02006228WS02006109 CONDUIT    312.69     0  06:56      0.65    1.37    0.91
  WS02006116WS02004401 CONDUIT    277.29     0  06:58      0.79    0.38    0.61
  WS02006115WS02006116 CONDUIT    292.32     0  06:57      0.94    0.38    0.52
  WS02006113WS02006111 CONDUIT    315.12     0  06:57      2.04    0.38    0.35
  WS02006112WS02006115 CONDUIT    304.70     0  06:57      0.62    0.18    0.64
  WS02006111WS02006112 CONDUIT    311.11     0  06:57      1.27    0.15    0.60
  WS02006110WS02006113 CONDUIT    311.91     0  06:56      0.87    0.28    0.67
  WS02006109WS02006110 CONDUIT    312.89     0  06:56      0.68    0.60    0.86
  WS02004411WS02004412 CONDUIT    236.93     0  07:05      0.64    0.34    0.48
  WS02004401WS02004402 CONDUIT    261.69     0  06:58      0.84    0.31    0.64
  WS02004413WS02003067 CONDUIT    233.31     0  07:06      0.71    0.10    0.44
  WS02004412WS02004413 CONDUIT    234.19     0  07:05      0.59    0.16    0.58
  WS02004410WS02004411 CONDUIT    240.64     0  07:04      0.73    0.33    0.46
  WS02004409WS02004410 CONDUIT    245.92     0  07:03      0.81    0.32    0.44
  WS02004407WS02004409 CONDUIT    251.61     0  07:02      1.27    0.09    0.31
  WS02004406WS02004407 CONDUIT    251.73     0  07:02      0.66    0.11    0.49
  WS02004405WS02004406 CONDUIT    252.07     0  07:02      0.76    0.50    0.77
  WS02004404WS02004405 CONDUIT    252.77     0  07:01      0.96    2.48    0.76
  WS02004403WS02004404 CONDUIT    253.45     0  07:01      0.85    0.18    0.72
  WS02004402WS02004403 CONDUIT    255.47     0  07:00      0.87    0.37    0.67
  WS02004139WS02001211 CONDUIT    183.95     0  00:10      0.69    0.23    0.43
  WS02004138WS02004139 CONDUIT    192.69     0  00:00      2.95    0.04    0.31
  WS02003067WS02003066 CONDUIT    233.30     0  07:07      0.76    0.07    0.32
  WS02001213WS02003059 CONDUIT    181.52     0  04:52      0.65    0.30    0.55
  WS02001212WS02001213 CONDUIT    184.80     0  00:12      1.00    0.29    0.28
  WS02001211WS02001212 CONDUIT    186.12     0  00:11      0.52    0.14    0.46
  WS02003072WS02003073 CONDUIT    332.82     0  04:54      1.20    0.72    0.29
  WS02003069WS02003072 CONDUIT    333.24     0  04:53      1.16    0.16    0.30
  WS02003060WS02003069 CONDUIT    333.76     0  04:53      1.45    0.13    0.26
  WS02003059WS02003060 CONDUIT    181.81     0  04:53      0.63    0.12    0.44
  HS02004901HS02004770 CONDUIT      1.75     0  02:40      0.02    0.01    0.19
  HS02004876HS02004881 CONDUIT      5.85     0  02:41      0.21    0.06    0.04
  HS02004870HS02004876 CONDUIT      4.60     0  02:39      0.15    0.00    0.04
  HS02004842HS02004848 CONDUIT      1.55     0  02:46      0.01    0.00    0.25
  HS02004837HS02004842 CONDUIT      4.48     0  00:03      0.42    0.00    0.26
  HS02004830HS02004837 CONDUIT     10.16     0  02:36      0.30    0.01    0.05
  HS02004824HS02004830 CONDUIT     10.31     0  02:38      0.35    0.01    0.04
  HS02004817HS02004824 CONDUIT     13.09     0  02:41      0.17    0.01    0.33
  HS02004770HS02004777 CONDUIT      8.96     0  02:37      0.06    0.02    0.20
  HS02004799HS02004480 CONDUIT     23.94     0  02:41      0.23    0.03    0.15
  HS02004792HS02004799 CONDUIT     22.00     0  02:40      0.27    0.01    0.11
  HS02004788HS02004792 CONDUIT     13.22     0  02:43      0.45    0.01    0.04
  HS02004785HS02004788 CONDUIT      8.90     0  02:44      0.22    0.07    0.06
  HS02004777HS02004785 CONDUIT      8.80     0  02:41      0.08    0.01    0.15
  HS02004480HS02004478 CONDUIT     28.05     0  02:42      0.46    0.12    0.09
  HS02004479HS02004480 CONDUIT      4.17     0  02:44      0.15    0.00    0.15
  HS02004862HS02004870 CONDUIT      3.24     0  02:41      0.23    0.00    0.02
  HS02004848HS02004852 CONDUIT      0.89     0  02:40      0.13    0.00    0.01
  HS02004856HS02004862 CONDUIT      1.89     0  02:40      0.15    0.00    0.02
  HS02004852HS02004856 CONDUIT      0.88     0  02:42      0.02    0.00    0.06
  HS02004802HS02004478 CONDUIT     16.14     0  02:44      0.15    0.01    0.16
  HS02004478WS02006287 CONDUIT     44.18     0  02:43      0.64    0.01    0.08
  HS02004817HS02004807 CONDUIT     13.69     0  02:45      0.05    0.01    0.41
  HS02004807HS02004802 CONDUIT     16.14     0  02:43      0.19    0.03    0.20
  YS02001759YS02001757 CONDUIT     38.50     0  03:19      0.12    0.03    0.75
  YS02001762YS02001759 CONDUIT     30.11     0  06:54      0.17    0.03    0.68
  YS02001765YS02001762 CONDUIT     23.80     0  03:19      0.21    0.02    0.64
  YS02001770YS02001767 CONDUIT     19.65     0  03:20      0.24    0.08    0.57
  YS02001774YS02001770 CONDUIT     10.59     0  03:06      0.13    0.01    0.58
  YS02001779YS02001774 CONDUIT      5.90     0  03:05      0.03    0.00    0.50
  YS02001649YS02001757 CONDUIT     59.54     0  03:14      0.10    0.04    0.73
  YS02001767YS02001765 CONDUIT     26.51     0  06:54      0.26    0.03    0.59
  YS02006561YS02001783 CONDUIT     61.48     0  03:06      1.17    0.03    0.16
  YS02001783YS02001784 CONDUIT     61.47     0  03:06      0.73    0.08    0.22
  YS02001784YS02001785 CONDUIT     62.52     0  03:07      0.72    0.15    0.23
  YS02001788YS02001790 CONDUIT     62.63     0  03:08      1.18    0.05    0.16
  YS02001790YS02001791 CONDUIT     62.79     0  03:08      1.35    0.07    0.15
  YS02001791YS02001793 CONDUIT     64.69     0  03:11      2.67    0.03    0.10
  YS02001910YS02001907 CONDUIT     19.72     0  03:08      0.49    0.01    0.51
  YS02001786YS02001788 CONDUIT     62.57     0  03:07      1.03    0.12    0.18
  YS02001915YS02001910 CONDUIT     19.78     0  03:03      0.44    0.01    0.30
  YS02001918YS02001915 CONDUIT      8.05     0  03:07      0.44    0.00    0.12
  YS02001923YS02001920 CONDUIT      5.19     0  03:04      0.17    0.00    0.08
  YS02001926YS02001923 CONDUIT      5.15     0  03:04      0.24    0.01    0.06
  YS02001929YS02001926 CONDUIT      5.13     0  03:01      0.25    0.00    0.06
  YS02001920YS02001918 CONDUIT      8.06     0  03:06      0.24    0.01    0.09
  YS02001629YS02163301 CONDUIT     16.78     0  03:15      0.06    0.02    0.52
  YS02001619YS02001622 CONDUIT     11.63     0  03:15      0.40    0.02    0.14
  YS02001622YS02001625 CONDUIT     13.59     0  03:14      0.14    0.01    0.30
  YS02001625YS02001629 CONDUIT     15.20     0  03:15      0.09    0.01    0.29
  YS02163301YS02001633 CONDUIT     17.73     0  03:15      0.05    0.02    0.57
  YS02163601YS02164001 CONDUIT     33.95     0  03:14      0.07    0.03    0.63
  YS02164001YS02001641 CONDUIT     33.72     0  03:15      0.07    0.05    0.61
  YS02001641YS02001644 CONDUIT     33.99     0  03:15      0.08    0.11    0.62
  YS02001647YS02001649 CONDUIT     46.55     0  03:15      0.11    0.02    0.56
  YS02006553YS02006556 CONDUIT     42.36     0  03:07      0.18    0.04    0.60
  YS02006556YS02006558 CONDUIT     42.38     0  03:09      0.08    0.03    0.63
  YSB6556YSB1171       CONDUIT      2.27     0  02:45      0.03    0.00    0.42
  YS02001907YS02006553 CONDUIT     42.32     0  03:07      0.07    0.05    0.68
  YS02006558YS02006561 CONDUIT     61.49     0  03:06      1.46    0.14    0.21
  YS02001633YS02163601 CONDUIT     31.10     0  03:14      0.06    0.03    0.62
  YS02001644YS02001647 CONDUIT     48.86     0  03:15      0.12    0.03    0.54
  YS02001745YS02001748 CONDUIT     13.03     0  03:01      0.85    0.01    0.05
  YS02001748YS02001751 CONDUIT     13.07     0  03:01      0.72    0.01    0.11
  YS02001751YS02001754 CONDUIT     21.88     0  06:16      0.67    0.01    0.29
  YS02001754YS02001757 CONDUIT     43.92     0  05:59      0.33    0.02    0.63
  YS02001882YS02001884 CONDUIT      1.11     0  02:08      0.06    0.00    0.23
  YS02001884YS02001887 CONDUIT      3.43     0  02:11      0.04    0.00    0.33
  YS02001890YS02001895 CONDUIT     22.74     0  03:01      0.11    0.01    0.30
  YS02001895YS02001898 CONDUIT     22.70     0  03:03      0.31    0.04    0.17
  YS02001898YS02001901 CONDUIT     22.74     0  03:04      0.15    0.01    0.25
  YS02001901YS02001904 CONDUIT     22.65     0  03:05      0.18    0.04    0.30
  YS02001904YS02001907 CONDUIT     22.67     0  03:06      0.06    0.01    0.46
  YS02001887YS02001890 CONDUIT     22.92     0  03:01      0.10    0.04    0.38
  YS02001652YS02001649 CONDUIT     20.87     0  03:17      0.22    0.01    0.57
  YS02001655YS02001652 CONDUIT     19.11     0  03:18      0.72    0.01    0.32
  YS02001658YS02001655 CONDUIT     16.16     0  03:01      0.81    0.01    0.12
  YS02001661YS02001658 CONDUIT     16.16     0  03:01      0.88    0.01    0.06
  YS02001664YS02001661 CONDUIT     16.17     0  03:01      0.47    0.01    0.09
  YSB1154YSB6556       CONDUIT      2.29     0  02:38      0.19    0.00    0.31
  YSB1174YSB1171       CONDUIT      2.13     0  02:30      0.02    0.00    0.43
  YSB1171HS02004479    CONDUIT      4.15     0  02:43      0.54    0.00    0.31
  HS02004881HS02006253 CONDUIT      6.59     0  02:41      0.83    0.00    0.19
  YS02001793JiankangQianchi CONDUIT     64.26     0  03:11      8.22    0.01    0.53
  YS02001757CaochengTiaoxuchi CONDUIT     99.69     0  03:40      0.35    0.04    0.43
  WSF200WS02003060     CONDUIT    233.33     0  07:07      1.49    0.05    0.20
  1                    CONDUIT    333.98     0  04:55      2.44    0.12    0.23
  2                    CONDUIT     26.70     0  06:51      3.31    0.06    0.17
  3                    CONDUIT    172.08     0  04:10      7.53    0.27    0.36
  4                    CONDUIT      0.00     0  00:00      0.00    0.00    0.00
  CC-Pump-1            PUMP       199.67     0  06:50              1.00
  CC-Pump-2            PUMP       199.91     0  05:40              1.00
  JK-Pump-1            PUMP       299.88     0  00:20              1.00
  JK-Pump-2            PUMP       300.00     0  04:10              1.00
  XR-Pump-1            PUMP        95.00     0  00:00              1.00
  XR-Pump-2            PUMP        94.97     0  06:10              1.00
  XR-Pump-3            PUMP        94.85     0  00:40              1.00
  XR-Pump-4            PUMP        95.00     0  00:00              1.00
  
  
  ***************************
  Flow Classification Summary
  ***************************
  
  -------------------------------------------------------------------------------------
                      Adjusted    ---------- Fraction of Time in Flow Class ---------- 
                       /Actual         Up    Down  Sub   Sup   Up    Down  Norm  Inlet 
  Conduit               Length    Dry  Dry   Dry   Crit  Crit  Crit  Crit  Ltd   Ctrl  
  -------------------------------------------------------------------------------------
  WS02003066WSF200        1.00   0.09  0.00  0.00  0.00  0.91  0.00  0.00  0.84  0.00
  WS02006287WS02006284    1.00   0.08  0.03  0.00  0.80  0.09  0.00  0.00  0.81  0.00
  WS02006284WS02006280    1.00   0.09  0.00  0.00  0.00  0.00  0.00  0.91  0.00  0.00
  WS02006280WS02006229    1.00   0.09  0.00  0.00  0.00  0.00  0.00  0.91  0.00  0.00
  WS02006229WS02006228    1.00   0.00  0.00  0.00  1.00  0.00  0.00  0.00  0.00  0.00
  WS02006256WS02006235    1.00   0.01  0.00  0.00  0.99  0.00  0.00  0.00  0.00  0.00
  WS02006253WS02006251    1.00   0.05  0.03  0.00  0.90  0.00  0.01  0.00  0.00  0.00
  WS02006252WS02006251    1.00   0.22  0.00  0.00  0.00  0.00  0.78  0.00  0.00  0.00
  WS02006251WS02006249    1.00   0.00  0.00  0.00  1.00  0.00  0.00  0.00  0.69  0.00
  WS02006249WS02006248    1.00   0.00  0.01  0.00  0.54  0.00  0.45  0.00  0.00  0.00
  WS02006248WS02006247    1.00   0.01  0.00  0.00  0.94  0.00  0.00  0.05  0.60  0.00
  WS02006247WS02006245    1.00   0.01  0.00  0.00  0.93  0.00  0.00  0.07  0.00  0.00
  WS02006245WS02006243    1.00   0.01  0.00  0.00  0.83  0.00  0.00  0.15  0.04  0.00
  WS02006243WS02006242    1.00   0.01  0.01  0.00  0.97  0.00  0.00  0.01  0.65  0.00
  WS02006242WS02006240    1.00   0.01  0.00  0.00  0.96  0.00  0.02  0.00  0.00  0.00
  WS02006240WS02006239    1.00   0.01  0.00  0.00  0.80  0.00  0.00  0.19  0.04  0.00
  WS02006239WS02006238    1.00   0.01  0.00  0.00  0.99  0.00  0.00  0.00  0.20  0.00
  WS02006238WS02006235    1.00   0.01  0.00  0.00  0.99  0.00  0.00  0.00  0.00  0.00
  WS02006235WS02006234    1.00   0.01  0.00  0.00  0.89  0.00  0.10  0.00  0.00  0.00
  WS02006234WS02006232    1.00   0.01  0.00  0.00  0.99  0.00  0.00  0.00  0.11  0.00
  WS02006232WS02006231    1.00   0.01  0.00  0.00  0.98  0.00  0.01  0.00  0.00  0.00
  WS02006231WS02006230    1.00   0.01  0.00  0.00  0.00  0.00  0.99  0.00  0.00  0.00
  WS02006230WS02006229    1.00   0.00  0.00  0.00  0.98  0.00  0.00  0.02  0.01  0.00
  WS02006228WS02006109    1.00   0.00  0.00  0.00  1.00  0.00  0.00  0.00  0.00  0.00
  WS02006116WS02004401    1.00   0.05  0.00  0.00  0.95  0.00  0.00  0.00  0.00  0.00
  WS02006115WS02006116    1.00   0.05  0.00  0.00  0.94  0.00  0.00  0.01  0.00  0.00
  WS02006113WS02006111    1.00   0.03  0.00  0.00  0.00  0.97  0.00  0.00  0.13  0.00
  WS02006112WS02006115    1.00   0.03  0.02  0.00  0.94  0.00  0.01  0.00  0.00  0.00
  WS02006111WS02006112    1.00   0.03  0.00  0.00  0.95  0.01  0.00  0.01  0.95  0.00
  WS02006110WS02006113    1.00   0.00  0.02  0.00  0.97  0.00  0.00  0.00  0.00  0.00
  WS02006109WS02006110    1.00   0.00  0.00  0.00  0.99  0.00  0.00  0.00  0.00  0.00
  WS02004411WS02004412    1.00   0.07  0.00  0.00  0.93  0.00  0.00  0.00  0.00  0.00
  WS02004401WS02004402    1.00   0.05  0.00  0.00  0.95  0.00  0.00  0.00  0.00  0.00
  WS02004413WS02003067    1.00   0.07  0.01  0.00  0.00  0.00  0.91  0.00  0.00  0.00
  WS02004412WS02004413    1.00   0.07  0.00  0.00  0.93  0.00  0.00  0.00  0.01  0.00
  WS02004410WS02004411    1.00   0.07  0.00  0.00  0.93  0.00  0.00  0.00  0.00  0.00
  WS02004409WS02004410    1.00   0.07  0.00  0.00  0.93  0.00  0.00  0.00  0.02  0.00
  WS02004407WS02004409    1.00   0.07  0.00  0.00  0.93  0.00  0.00  0.00  0.92  0.00
  WS02004406WS02004407    1.00   0.00  0.07  0.00  0.93  0.00  0.00  0.00  0.00  0.00
  WS02004405WS02004406    1.00   0.00  0.00  0.00  1.00  0.00  0.00  0.00  0.03  0.00
  WS02004404WS02004405    1.00   0.00  0.00  0.00  1.00  0.00  0.00  0.00  0.00  0.00
  WS02004403WS02004404    1.00   0.00  0.06  0.00  0.94  0.00  0.00  0.00  0.00  0.00
  WS02004402WS02004403    1.00   0.06  0.00  0.00  0.94  0.00  0.00  0.00  0.00  0.00
  WS02004139WS02001211    1.00   0.00  0.00  0.00  1.00  0.00  0.00  0.00  0.00  0.00
  WS02004138WS02004139    1.00   0.00  0.01  0.00  0.98  0.00  0.00  0.00  1.00  0.00
  WS02003067WS02003066    1.00   0.09  0.01  0.00  0.91  0.00  0.00  0.00  0.00  0.00
  WS02001213WS02003059    1.00   0.00  0.00  0.00  1.00  0.00  0.00  0.00  0.00  0.00
  WS02001212WS02001213    1.00   0.00  0.00  0.00  0.01  0.00  0.98  0.00  0.00  0.00
  WS02001211WS02001212    1.00   0.00  0.00  0.00  1.00  0.00  0.00  0.00  0.00  0.00
  WS02003072WS02003073    1.00   0.00  0.00  0.00  0.00  0.00  0.00  1.00  0.00  0.00
  WS02003069WS02003072    1.00   0.00  0.00  0.00  1.00  0.00  0.00  0.00  0.97  0.00
  WS02003060WS02003069    1.00   0.00  0.00  0.00  0.99  0.01  0.00  0.00  0.66  0.00
  WS02003059WS02003060    1.00   0.00  0.00  0.00  1.00  0.00  0.00  0.00  0.01  0.00
  HS02004901HS02004770    1.00   0.09  0.00  0.00  0.91  0.00  0.00  0.00  0.04  0.00
  HS02004876HS02004881    1.00   0.01  0.00  0.00  0.99  0.00  0.00  0.00  0.00  0.00
  HS02004870HS02004876    1.00   0.00  0.00  0.00  0.99  0.01  0.00  0.00  0.95  0.00
  HS02004842HS02004848    1.00   0.00  0.10  0.00  0.90  0.00  0.00  0.00  0.77  0.00
  HS02004837HS02004842    1.00   0.00  0.00  0.00  1.00  0.00  0.00  0.00  0.11  0.00
  HS02004830HS02004837    1.00   0.00  0.00  0.00  1.00  0.00  0.00  0.00  0.99  0.00
  HS02004824HS02004830    1.00   0.00  0.00  0.00  1.00  0.00  0.00  0.00  0.00  0.00
  HS02004817HS02004824    1.00   0.00  0.00  0.00  1.00  0.00  0.00  0.00  1.00  0.00
  HS02004770HS02004777    1.00   0.00  0.09  0.00  0.91  0.00  0.00  0.00  0.08  0.00
  HS02004799HS02004480    1.00   0.00  0.02  0.00  0.88  0.00  0.10  0.00  0.00  0.00
  HS02004792HS02004799    1.00   0.00  0.00  0.00  1.00  0.00  0.00  0.00  0.98  0.00
  HS02004788HS02004792    1.00   0.00  0.00  0.00  1.00  0.00  0.00  0.00  0.98  0.00
  HS02004785HS02004788    1.00   0.00  0.00  0.00  1.00  0.00  0.00  0.00  0.00  0.00
  HS02004777HS02004785    1.00   0.00  0.00  0.00  1.00  0.00  0.00  0.00  0.23  0.00
  HS02004480HS02004478    1.00   0.10  0.00  0.00  0.78  0.00  0.00  0.12  0.00  0.00
  HS02004479HS02004480    1.00   0.02  0.00  0.00  0.98  0.00  0.00  0.00  0.17  0.00
  HS02004862HS02004870    1.00   0.00  0.00  0.00  1.00  0.00  0.00  0.00  0.06  0.00
  HS02004848HS02004852    1.00   0.10  0.00  0.00  0.90  0.00  0.00  0.00  0.66  0.00
  HS02004856HS02004862    1.00   0.00  0.16  0.00  0.84  0.00  0.00  0.00  0.71  0.00
  HS02004852HS02004856    1.00   0.09  0.02  0.00  0.89  0.00  0.00  0.00  0.81  0.00
  HS02004802HS02004478    1.00   0.09  0.01  0.00  0.89  0.00  0.00  0.00  0.00  0.00
  HS02004478WS02006287    1.00   0.11  0.00  0.00  0.89  0.00  0.00  0.00  0.81  0.00
  HS02004817HS02004807    1.00   0.00  0.09  0.00  0.91  0.00  0.00  0.00  0.00  0.00
  HS02004807HS02004802    1.00   0.09  0.00  0.00  0.90  0.00  0.00  0.00  0.01  0.00
  YS02001759YS02001757    1.00   0.00  0.00  0.00  1.00  0.00  0.00  0.00  0.17  0.00
  YS02001762YS02001759    1.00   0.00  0.00  0.00  1.00  0.00  0.00  0.00  0.06  0.00
  YS02001765YS02001762    1.00   0.00  0.00  0.00  1.00  0.00  0.00  0.00  0.25  0.00
  YS02001770YS02001767    1.00   0.00  0.00  0.00  1.00  0.00  0.00  0.00  0.00  0.00
  YS02001774YS02001770    1.00   0.00  0.12  0.00  0.88  0.00  0.00  0.00  0.06  0.00
  YS02001779YS02001774    1.00   0.00  0.00  0.00  1.00  0.00  0.00  0.00  0.31  0.00
  YS02001649YS02001757    1.00   0.00  0.00  0.00  1.00  0.00  0.00  0.00  0.20  0.00
  YS02001767YS02001765    1.00   0.00  0.00  0.00  1.00  0.00  0.00  0.00  0.01  0.00
  YS02006561YS02001783    1.00   0.15  0.00  0.00  0.00  0.84  0.00  0.00  0.70  0.00
  YS02001783YS02001784    1.00   0.00  0.16  0.00  0.84  0.00  0.00  0.00  0.51  0.00
  YS02001784YS02001785    1.00   0.00  0.00  0.00  1.00  0.00  0.00  0.00  0.28  0.00
  YS02001788YS02001790    1.00   0.00  0.00  0.00  0.16  0.84  0.00  0.00  1.00  0.00
  YS02001790YS02001791    1.00   0.00  0.00  0.00  0.01  0.99  0.00  0.00  0.00  0.00
  YS02001791YS02001793    1.00   0.00  0.00  0.00  0.00  1.00  0.00  0.00  0.00  0.00
  YS02001910YS02001907    1.00   0.00  0.00  0.00  0.99  0.00  0.00  0.01  0.13  0.00
  YS02001786YS02001788    1.00   0.00  0.00  0.00  0.55  0.45  0.00  0.00  0.00  0.00
  YS02001915YS02001910    1.00   0.00  0.00  0.00  1.00  0.00  0.00  0.00  0.27  0.00
  YS02001918YS02001915    1.00   0.00  0.00  0.00  0.99  0.01  0.00  0.00  0.79  0.00
  YS02001923YS02001920    1.00   0.00  0.00  0.00  1.00  0.00  0.00  0.00  1.00  0.00
  YS02001926YS02001923    1.00   0.00  0.07  0.00  0.00  0.00  0.93  0.00  0.00  0.00
  YS02001929YS02001926    1.00   0.00  0.09  0.00  0.91  0.00  0.00  0.00  0.86  0.00
  YS02001920YS02001918    1.00   0.00  0.00  0.00  1.00  0.00  0.00  0.00  0.00  0.00
  YS02001629YS02163301    1.00   0.13  0.01  0.00  0.86  0.00  0.00  0.00  0.00  0.00
  YS02001619YS02001622    1.00   0.09  0.00  0.00  0.91  0.00  0.00  0.00  0.00  0.00
  YS02001622YS02001625    1.00   0.09  0.00  0.00  0.91  0.00  0.00  0.00  0.17  0.00
  YS02001625YS02001629    1.00   0.09  0.07  0.00  0.79  0.00  0.05  0.00  0.00  0.00
  YS02163301YS02001633    1.00   0.00  0.13  0.00  0.87  0.00  0.00  0.00  0.00  0.00
  YS02163601YS02164001    1.00   0.00  0.07  0.00  0.93  0.00  0.00  0.00  0.00  0.00
  YS02164001YS02001641    1.00   0.00  0.07  0.00  0.93  0.00  0.00  0.00  0.07  0.00
  YS02001641YS02001644    1.00   0.00  0.00  0.00  1.00  0.00  0.00  0.00  0.00  0.00
  YS02001647YS02001649    1.00   0.00  0.16  0.00  0.84  0.00  0.00  0.00  0.01  0.00
  YS02006553YS02006556    1.00   0.00  0.00  0.00  1.00  0.00  0.00  0.00  0.03  0.00
  YS02006556YS02006558    1.00   0.00  0.00  0.00  1.00  0.00  0.00  0.00  0.00  0.00
  YSB6556YSB1171          1.00   0.03  0.06  0.00  0.91  0.00  0.00  0.00  0.00  0.00
  YS02001907YS02006553    1.00   0.00  0.01  0.00  0.99  0.00  0.00  0.00  0.00  0.00
  YS02006558YS02006561    1.00   0.15  0.00  0.00  0.00  0.84  0.00  0.00  0.53  0.00
  YS02001633YS02163601    1.00   0.00  0.00  0.00  1.00  0.00  0.00  0.00  0.21  0.00
  YS02001644YS02001647    1.00   0.00  0.16  0.00  0.84  0.00  0.00  0.00  0.00  0.00
  YS02001745YS02001748    1.00   0.00  0.00  0.00  0.00  0.00  0.00  1.00  0.00  0.00
  YS02001748YS02001751    1.00   0.00  0.00  0.00  0.93  0.07  0.00  0.00  0.86  0.00
  YS02001751YS02001754    1.00   0.00  0.00  0.00  0.82  0.00  0.00  0.17  0.06  0.00
  YS02001754YS02001757    1.00   0.00  0.00  0.00  1.00  0.00  0.00  0.00  0.30  0.00
  YS02001882YS02001884    1.00   0.13  0.01  0.00  0.86  0.00  0.00  0.00  0.00  0.00
  YS02001884YS02001887    1.00   0.06  0.02  0.00  0.92  0.00  0.00  0.00  0.00  0.00
  YS02001890YS02001895    1.00   0.00  0.14  0.00  0.86  0.00  0.00  0.00  0.00  0.00
  YS02001895YS02001898    1.00   0.14  0.00  0.00  0.84  0.00  0.02  0.00  0.00  0.00
  YS02001898YS02001901    1.00   0.13  0.01  0.00  0.86  0.00  0.00  0.00  0.02  0.00
  YS02001901YS02001904    1.00   0.13  0.00  0.00  0.87  0.00  0.00  0.00  0.00  0.00
  YS02001904YS02001907    1.00   0.00  0.13  0.00  0.87  0.00  0.00  0.00  0.00  0.00
  YS02001887YS02001890    1.00   0.00  0.00  0.00  0.99  0.00  0.01  0.00  0.00  0.00
  YS02001652YS02001649    1.00   0.00  0.00  0.00  1.00  0.00  0.00  0.00  0.30  0.00
  YS02001655YS02001652    1.00   0.00  0.00  0.00  0.83  0.00  0.00  0.17  0.06  0.00
  YS02001658YS02001655    1.00   0.00  0.12  0.00  0.80  0.07  0.00  0.00  0.78  0.00
  YS02001661YS02001658    1.00   0.12  0.00  0.00  0.00  0.88  0.00  0.00  0.73  0.00
  YS02001664YS02001661    1.00   0.09  0.00  0.00  0.91  0.00  0.00  0.00  0.86  0.00
  YSB1154YSB6556          1.00   0.09  0.00  0.00  0.91  0.00  0.00  0.00  0.02  0.00
  YSB1174YSB1171          1.00   0.05  0.02  0.00  0.92  0.00  0.00  0.00  0.00  0.00
  YSB1171HS02004479       1.00   0.03  0.00  0.00  0.94  0.00  0.00  0.03  0.14  0.00
  HS02004881HS02006253    1.00   0.05  0.00  0.00  0.20  0.01  0.00  0.74  0.08  0.00
  YS02001793JiankangQianchi    1.00   0.00  0.00  0.00  0.60  0.40  0.00  0.00  0.68  0.00
  YS02001757CaochengTiaoxuchi    1.00   0.00  0.22  0.00  0.78  0.00  0.00  0.00  0.00  0.00
  WSF200WS02003060        1.00   0.00  0.09  0.00  0.54  0.37  0.00  0.00  0.72  0.00
  1                       1.00   0.00  0.00  0.00  0.00  1.00  0.00  0.00  0.28  0.00
  2                       1.00   0.97  0.00  0.00  0.00  0.03  0.00  0.00  0.01  0.00
  3                       1.00   0.84  0.00  0.00  0.00  0.16  0.00  0.00  0.30  0.00
  4                       1.00   1.00  0.00  0.00  0.00  0.00  0.00  0.00  0.00  0.00
  
  
  *************************
  Conduit Surcharge Summary
  *************************
  
  ----------------------------------------------------------------------------
                                                           Hours        Hours 
                         --------- Hours Full --------   Above Full   Capacity
  Conduit                Both Ends  Upstream  Dnstream   Normal Flow   Limited
  ----------------------------------------------------------------------------
  WS02006229WS02006228        0.01      0.01      0.01      0.05         0.01
  WS02006256WS02006235        2.27      2.27      6.05      0.74         0.01
  WS02006252WS02006251        0.06      0.06      0.18      0.15         0.01
  WS02006251WS02006249        0.01      0.01      0.01      0.04         0.01
  WS02006249WS02006248        0.01      0.01      0.01      0.38         0.01
  WS02006247WS02006245        0.01      0.01      0.01      0.73         0.01
  WS02006245WS02006243        0.01      0.01      0.01      0.01         0.01
  WS02006242WS02006240        0.01      0.01      0.01      0.14         0.01
  WS02006235WS02006234        0.01      0.01      0.01      2.13         0.01
  WS02006231WS02006230        0.01      0.01      0.01      2.69         0.01
  WS02006230WS02006229        0.01      0.01      0.01      3.72         0.01
  WS02006228WS02006109        0.01      0.01      0.01      0.30         0.01
  WS02004404WS02004405        0.01      0.01      0.01      2.56         0.01
  YS02001793JiankangQianchi        0.01      0.01      1.38      0.01         0.01
  
  
  ***************
  Pumping Summary
  ***************
  
  ---------------------------------------------------------------------------------------------------------
                                                  Min       Avg       Max     Total     Power    % Time Off
                        Percent   Number of      Flow      Flow      Flow    Volume     Usage    Pump Curve
  Pump                 Utilized   Start-Ups       LPS       LPS       LPS  10^6 ltr     Kw-hr    Low   High
  ---------------------------------------------------------------------------------------------------------
  CC-Pump-1               21.28           3      0.00     83.49    199.67     0.457      1.94    0.0  100.0
  CC-Pump-2               19.95           5      0.00     89.44    199.91     0.464      1.98    0.0  100.0
  JK-Pump-1               23.41           4      0.00     96.98    299.88     0.391      6.63    0.0    0.0
  JK-Pump-2               31.92           5      0.00     84.14    300.00     0.507      8.85    0.0    0.0
  XR-Pump-1               72.33           6      0.00     68.35     95.00     1.340      6.94    0.0    0.0
  XR-Pump-2                8.51           2      0.00     42.87     94.97     0.114      0.50    0.0    0.0
  XR-Pump-3                4.26           1      0.00     45.89     94.85     0.057      0.39    0.0    0.0
  XR-Pump-4               36.17           8      0.00     51.37     95.00     0.542      3.10    0.0    0.0
  

  Analysis begun on:  Wed Jan  5 21:27:31 2022
  Analysis ended on:  Wed Jan  5 21:27:32 2022
  Total elapsed time: 00:00:01