
  EPA STORM WATER MANAGEMENT MODEL - VERSION 5.1 (Build 5.3.0.dev0)
  --------------------------------------------------------------

  WARNING 04: minimum elevation drop used for Conduit WS02004404WS02004405
  WARNING 03: negative offset ignored for Link YS02001904YS02001907
  
  *********************************************************
  NOTE: The summary statistics displayed in this report are
  based on results found at every computational time step,  
  not just on results from each reporting time step.
  *********************************************************
  
  ****************
  Analysis Options
  ****************
  Flow Units ............... LPS
  Process Models:
    Rainfall/Runoff ........ YES
    RDII ................... NO
    Snowmelt ............... NO
    Groundwater ............ NO
    Flow Routing ........... YES
    Ponding Allowed ........ NO
    Water Quality .......... NO
  Infiltration Method ...... HORTON
  Flow Routing Method ...... DYNWAVE
  Surcharge Method ......... EXTRAN
  Starting Date ............ 08/28/2015 08:00:00
  Ending Date .............. 08/28/2015 15:50:00
  Antecedent Dry Days ...... 8.0
  Report Time Step ......... 00:01:00
  Wet Time Step ............ 00:01:00
  Dry Time Step ............ 00:01:00
  Routing Time Step ........ 5.00 sec
  Variable Time Step ....... YES
  Maximum Trials ........... 8
  Number of Threads ........ 4
  Head Tolerance ........... 0.001500 m
  
  
  **************************        Volume         Depth
  Runoff Quantity Continuity     hectare-m            mm
  **************************     ---------       -------
  Total Precipitation ......         3.523         7.714
  Evaporation Loss .........         0.000         0.000
  Infiltration Loss ........         0.895         1.959
  Surface Runoff ...........         1.685         3.690
  Final Storage ............         0.944         2.067
  Continuity Error (%) .....        -0.018
  
  
  **************************        Volume        Volume
  Flow Routing Continuity        hectare-m      10^6 ltr
  **************************     ---------     ---------
  Dry Weather Inflow .......         0.616         6.165
  Wet Weather Inflow .......         1.685        16.846
  Groundwater Inflow .......         0.000         0.000
  RDII Inflow ..............         0.000         0.000
  External Inflow ..........         0.102         1.024
  External Outflow .........         1.374        13.740
  Flooding Loss ............         0.474         4.736
  Evaporation Loss .........         0.000         0.000
  Exfiltration Loss ........         0.000         0.000
  Initial Stored Volume ....         0.076         0.761
  Final Stored Volume ......         0.632         6.316
  Continuity Error (%) .....         0.009
  
  
  *************************
  Highest Continuity Errors
  *************************
  Node HS02004842 (23.53%)
  Node YS02001884 (15.56%)
  Node YS02001774 (15.40%)
  Node YSB1171 (5.13%)
  Node HS02004817 (4.10%)
  
  
  ***************************
  Time-Step Critical Elements
  ***************************
  Link 3 (82.84%)
  Link WS02006280WS02006229 (5.89%)
  Link YS02001791YS02001793 (2.85%)
  Link WS02006238WS02006235 (2.57%)
  
  
  ********************************
  Highest Flow Instability Indexes
  ********************************
  Link WS02006113WS02006111 (34)
  Link YS02001629YS02163301 (23)
  Link YS02163301YS02001633 (23)
  Link YS02001619YS02001622 (22)
  Link YS02163601YS02164001 (22)
  
  
  *************************
  Routing Time Step Summary
  *************************
  Minimum Time Step           :     0.24 sec
  Average Time Step           :     1.26 sec
  Maximum Time Step           :     5.00 sec
  Percent in Steady State     :    -0.00
  Average Iterations per Step :     4.08
  Percent Not Converging      :    21.94
  
  
  ***************************
  Subcatchment Runoff Summary
  ***************************
  
  ------------------------------------------------------------------------------------------------------------------------------
                            Total      Total      Total      Total     Imperv       Perv      Total       Total     Peak  Runoff
                           Precip      Runon       Evap      Infil     Runoff     Runoff     Runoff      Runoff   Runoff   Coeff
  Subcatchment                 mm         mm         mm         mm         mm         mm         mm    10^6 ltr      LPS
  ------------------------------------------------------------------------------------------------------------------------------
  sub0                       7.71       0.00       0.00       0.54       5.91       0.00       5.91        0.00     2.17   0.766
  sub1                       7.71       0.00       0.00       0.85       5.61       0.00       5.61        0.04    11.61   0.727
  sub2                       7.71       0.00       0.00       2.85       3.95       0.00       3.95        0.04    10.31   0.512
  sub3                       7.71       0.00       0.00       2.85       3.92       0.00       3.92        0.09    21.31   0.508
  sub4                       7.71       0.00       0.00       0.85       5.46       0.00       5.46        0.11    24.01   0.708
  sub5                       7.71       0.00       0.00       0.54       5.86       0.00       5.86        0.07    20.66   0.760
  sub7                       7.71       0.00       0.00       0.69       5.77       0.00       5.77        0.02     7.23   0.747
  sub8                       7.71       0.00       0.00       0.69       5.76       0.00       5.76        0.04    12.80   0.746
  sub9                       7.71       0.00       0.00       0.69       5.75       0.00       5.75        0.03     9.49   0.746
  sub10                      7.71       0.00       0.00       0.62       5.81       0.00       5.81        0.06    20.59   0.753
  sub11                      7.71       0.00       0.00       0.62       5.82       0.00       5.82        0.07    24.05   0.755
  sub12                      7.71       0.00       0.00       1.00       5.52       0.00       5.52        0.05    20.16   0.716
  sub14                      7.71       0.00       0.00       0.69       5.75       0.00       5.75        0.05    18.55   0.746
  sub15                      7.71       0.00       0.00       2.31       4.42       0.00       4.42        0.08    25.20   0.573
  sub16                      7.71       0.00       0.00       2.55       4.25       0.00       4.25        0.04    17.78   0.551
  sub17                      7.71       0.00       0.00       2.47       4.31       0.00       4.31        0.04    14.39   0.559
  sub22                      7.71       0.00       0.00       3.32       3.61       0.00       3.61        0.23    82.19   0.468
  sub23                      7.71       0.00       0.00       2.85       3.99       0.00       3.99        0.19    69.97   0.517
  sub60                      7.71       0.00       0.00       0.93       4.17       0.00       4.17        1.26   125.11   0.540
  sub61                      7.71       0.00       0.00       1.31       4.37       0.00       4.37        1.35   155.98   0.566
  sub62                      7.71       0.00       0.00       0.62       4.71       0.00       4.71        1.45   159.69   0.610
  sub63                      7.71       0.00       0.00       2.24       3.86       0.00       3.86        1.17   145.24   0.500
  sub64                      7.71       0.00       0.00       1.16       3.99       0.00       3.99        1.21   118.90   0.517
  sub65                      7.71       0.00       0.00       1.00       4.04       0.00       4.04        1.24   120.72   0.524
  sub66                      7.71       0.00       0.00       2.24       3.46       0.00       3.46        1.06   108.74   0.448
  sub67                      7.71       0.00       0.00       0.62       5.09       0.00       5.09        1.57   203.88   0.660
  sub68                      7.71       0.00       0.00       1.08       4.62       0.00       4.62        1.42   172.19   0.599
  sub69                      7.71       0.00       0.00       1.16       4.91       0.00       4.91        1.15   169.99   0.636
  sub70                      7.71       5.01       0.00       4.33       6.25       0.00       6.25        1.43   142.93   0.491
  sub71                      7.71       0.00       0.00       0.62       4.53       0.00       4.53        1.07   111.70   0.588
  sub72                      7.71       0.00       0.00       0.54       3.35       0.00       3.35        0.68    54.30   0.434
  sub73                      7.71       6.08       0.00       4.69       6.54       0.00       6.54        1.54   124.99   0.474
  sub74                      7.71       0.00       0.00       5.79       1.47       0.00       1.47        0.59    94.63   0.191
  
  
  ******************
  Node Depth Summary
  ******************
  
  ---------------------------------------------------------------------------------
                                 Average  Maximum  Maximum  Time of Max    Reported
                                   Depth    Depth      HGL   Occurrence   Max Depth
  Node                 Type       Meters   Meters   Meters  days hr:min      Meters
  ---------------------------------------------------------------------------------
  WS02001211           JUNCTION     0.68     0.71     5.55     0  02:38        0.71
  WS02001212           JUNCTION     0.40     0.43     5.50     0  02:37        0.43
  WS02001213           JUNCTION     0.61     0.68     5.45     0  02:36        0.68
  WS02003069           JUNCTION     0.39     0.52     5.10     0  02:35        0.52
  WS02003072           JUNCTION     0.46     0.58     4.95     0  02:36        0.58
  WS02003073           JUNCTION     0.28     0.35     4.42     0  02:36        0.35
  WS02003060           JUNCTION     0.35     0.46     5.39     0  02:35        0.46
  WS02003066           JUNCTION     0.18     0.28     5.83     0  02:33        0.28
  WS02003059           JUNCTION     0.67     0.74     5.43     0  02:36        0.74
  WS02003067           JUNCTION     0.47     0.67     5.99     0  02:32        0.67
  WS02004401           JUNCTION     0.54     0.79     6.79     0  02:29        0.79
  WS02004402           JUNCTION     0.57     0.82     6.78     0  02:29        0.82
  WS02004403           JUNCTION     0.60     0.84     6.77     0  02:29        0.84
  WS02004404           JUNCTION     0.67     0.92     6.77     0  02:30        0.92
  WS02004406           JUNCTION     0.69     0.92     6.75     0  02:30        0.92
  WS02004409           JUNCTION     0.36     0.61     6.38     0  02:31        0.61
  WS02004410           JUNCTION     0.38     0.63     6.35     0  02:31        0.63
  WS02004411           JUNCTION     0.40     0.64     6.32     0  02:32        0.64
  WS02004412           JUNCTION     0.42     0.65     6.29     0  02:32        0.65
  WS02004413           JUNCTION     0.58     0.82     6.29     0  02:32        0.82
  WS02004405           JUNCTION     0.67     0.91     6.76     0  02:30        0.91
  WS02006109           JUNCTION     0.60     0.89     7.51     0  02:24        0.89
  WS02006110           JUNCTION     0.61     0.87     7.45     0  02:24        0.87
  WS02006111           JUNCTION     0.16     0.27     6.97     0  02:24        0.27
  WS02006112           JUNCTION     0.69     0.98     6.86     0  02:28        0.98
  WS02006113           JUNCTION     0.24     0.42     7.31     0  02:24        0.42
  WS02006115           JUNCTION     0.42     0.69     6.83     0  02:29        0.69
  WS02006116           JUNCTION     0.51     0.77     6.81     0  02:29        0.77
  WS02006230           JUNCTION     0.51     0.86     7.61     0  02:23        0.86
  WS02006231           JUNCTION     0.30     0.51     7.63     0  02:24        0.51
  WS02006232           JUNCTION     0.41     0.61     7.65     0  02:27        0.61
  WS02006234           JUNCTION     0.31     0.51     7.66     0  02:27        0.51
  WS02006235           JUNCTION     0.34     0.52     7.68     0  02:27        0.52
  WS02006238           JUNCTION     0.36     0.54     7.69     0  02:26        0.54
  WS02006240           JUNCTION     0.22     0.39     7.69     0  02:27        0.39
  WS02006242           JUNCTION     0.24     0.42     7.69     0  02:28        0.42
  WS02006243           JUNCTION     0.12     0.27     7.69     0  02:25        0.27
  WS02006245           JUNCTION     0.08     0.23     7.71     0  02:25        0.23
  WS02006247           JUNCTION     0.09     0.23     7.73     0  02:25        0.23
  WS02006248           JUNCTION     0.06     0.18     7.77     0  02:16        0.18
  WS02006249           JUNCTION     0.10     0.23     7.83     0  02:15        0.23
  WS02006239           JUNCTION     0.30     0.48     7.68     0  02:27        0.47
  WS02006251           JUNCTION     0.07     0.21     7.88     0  02:15        0.21
  WS02006252           JUNCTION     0.00     0.00     8.24     0  00:00        0.00
  WS02006253           JUNCTION     0.11     0.27     7.92     0  02:14        0.27
  WS02006256           JUNCTION     0.98     2.13     9.06     0  02:31        1.29
  WS02004138           JUNCTION     0.16     0.17     7.42     0  05:12        0.17
  WS02004407           JUNCTION     0.16     0.27     6.59     0  02:30        0.27
  WS02006228           JUNCTION     0.58     0.91     7.56     0  02:24        0.91
  WS02006229           JUNCTION     0.55     0.90     7.59     0  02:23        0.90
  WS02006280           JUNCTION     0.07     0.18     8.45     0  02:14        0.18
  WS02006284           JUNCTION     0.37     0.53     8.93     0  02:14        0.53
  WS02006287           JUNCTION     0.10     0.26     9.22     0  02:14        0.26
  WSF200               JUNCTION     0.16     0.28     5.51     0  02:32        0.28
  HS02004901           JUNCTION     0.13     0.27    10.09     0  02:12        0.27
  HS02004881           JUNCTION     0.01     0.03     9.06     0  02:14        0.03
  HS02004876           JUNCTION     0.05     0.11     9.14     0  02:09        0.11
  HS02004870           JUNCTION     0.02     0.05     9.34     0  02:15        0.05
  HS02004862           JUNCTION     0.02     0.06     9.45     0  02:15        0.06
  HS02004856           JUNCTION     0.08     0.12     9.54     0  02:15        0.12
  HS02004852           JUNCTION     0.01     0.04     9.55     0  02:16        0.04
  HS02004848           JUNCTION     0.01     0.04     9.64     0  02:15        0.04
  HS02004842           JUNCTION     0.34     0.37     9.64     0  02:14        0.37
  HS02004837           JUNCTION     0.03     0.06     9.64     0  02:14        0.06
  HS02004830           JUNCTION     0.04     0.07     9.54     0  02:15        0.07
  HS02004824           JUNCTION     0.02     0.05     9.45     0  02:18        0.05
  HS02004817           JUNCTION     0.44     0.57     9.42     0  02:15        0.57
  HS02004807           JUNCTION     0.13     0.24     9.41     0  02:15        0.24
  HS02004802           JUNCTION     0.16     0.28     9.41     0  02:15        0.28
  HS02004799           JUNCTION     0.12     0.32     9.53     0  02:12        0.32
  HS02004792           JUNCTION     0.03     0.13     9.65     0  02:12        0.13
  HS02004788           JUNCTION     0.03     0.10    10.00     0  02:13        0.10
  HS02004785           JUNCTION     0.05     0.17    10.07     0  02:12        0.17
  HS02004777           JUNCTION     0.15     0.29    10.09     0  02:12        0.29
  HS02004770           JUNCTION     0.12     0.26    10.09     0  02:12        0.26
  HS02004480           JUNCTION     0.09     0.25     9.49     0  02:13        0.25
  HS02004479           JUNCTION     0.12     0.29     9.49     0  02:13        0.29
  HS02004478           JUNCTION     0.06     0.17     9.39     0  02:14        0.17
  YS02001745           JUNCTION     0.61     0.86     8.38     0  03:46        0.86
  YS02001748           JUNCTION     0.99     1.38     8.45     0  03:14        1.31
  YS02001751           JUNCTION     1.18     2.04     8.92     0  02:47        1.52
  YS02001754           JUNCTION     1.43     1.97     8.58     0  02:47        1.79
  YS02001762           JUNCTION     1.62     2.02     8.42     0  03:41        2.01
  YS02001765           JUNCTION     1.58     1.97     8.42     0  03:38        1.95
  YS02001767           JUNCTION     1.54     1.92     8.41     0  03:46        1.90
  YS02001770           JUNCTION     1.54     1.95     8.44     0  02:53        1.94
  YS02001774           JUNCTION     1.60     2.04     8.46     0  02:53        2.01
  YS02001779           JUNCTION     1.36     1.68     8.37     0  02:43        1.68
  YS02001882           JUNCTION     0.38     0.60     7.31     0  02:49        0.59
  YS02001884           JUNCTION     0.48     0.69     7.31     0  02:45        0.69
  YS02001759           JUNCTION     1.66     2.06     8.42     0  03:46        2.04
  YS02001887           JUNCTION     0.56     0.77     7.31     0  02:49        0.77
  YS02001890           JUNCTION     0.59     0.80     7.31     0  02:44        0.80
  YS02001898           JUNCTION     0.35     0.56     7.29     0  02:48        0.56
  YS02001901           JUNCTION     0.47     0.68     7.29     0  02:50        0.68
  YS02001904           JUNCTION     0.45     0.66     7.29     0  02:57        0.66
  YS02001907           JUNCTION     0.78     1.00     7.29     0  02:45        1.00
  YS02001910           JUNCTION     0.57     0.78     7.29     0  02:48        0.78
  YS02001915           JUNCTION     0.37     0.57     7.29     0  02:47        0.57
  YS02001918           JUNCTION     0.12     0.22     7.29     0  02:48        0.22
  YS02001619           JUNCTION     1.14     1.61     8.54     0  03:09        1.50
  YS02001629           JUNCTION     1.49     1.85     8.40     0  03:10        1.85
  YS02001641           JUNCTION     1.59     1.94     8.37     0  03:30        1.93
  YS02001644           JUNCTION     1.60     1.92     8.35     0  03:27        1.92
  YS02001652           JUNCTION     1.44     2.14     8.73     0  02:53        1.91
  YS02001655           JUNCTION     1.20     2.20     9.05     0  02:51        1.72
  YS02001920           JUNCTION     0.22     0.29     7.30     0  02:49        0.29
  YS02001923           JUNCTION     0.08     0.11     7.37     0  03:01        0.11
  YS02001926           JUNCTION     0.17     0.21     7.66     0  03:01        0.21
  YS02001929           JUNCTION     0.09     0.11     7.80     0  03:01        0.11
  YS02001658           JUNCTION     0.94     2.14     9.29     0  03:08        1.48
  YS02001661           JUNCTION     0.71     1.99     9.40     0  03:34        1.23
  YS02001664           JUNCTION     0.31     0.57     8.50     0  03:33        0.56
  YS02001622           JUNCTION     1.16     1.62     8.52     0  03:10        1.51
  YS02001633           JUNCTION     1.58     1.94     8.40     0  03:32        1.92
  YS02001649           JUNCTION     1.63     2.05     8.44     0  03:32        2.05
  YS02001757           JUNCTION     1.76     2.16     8.42     0  03:46        2.15
  YS02001895           JUNCTION     0.35     0.55     7.30     0  02:48        0.55
  YS02001625           JUNCTION     1.44     1.78     8.38     0  03:10        1.78
  YS02163301           JUNCTION     1.52     1.89     8.40     0  03:13        1.87
  YS02163601           JUNCTION     1.63     1.99     8.39     0  03:31        1.97
  YS02164001           JUNCTION     1.57     1.92     8.38     0  03:31        1.90
  YS02001647           JUNCTION     1.43     1.80     8.41     0  02:54        1.79
  YSB1154              JUNCTION     0.26     0.44     9.50     0  02:13        0.44
  YSB6556              JUNCTION     0.15     0.33     9.49     0  02:13        0.33
  YSB1174              JUNCTION     0.21     0.39     9.50     0  02:13        0.39
  YSB1171              JUNCTION     0.41     0.59     9.50     0  02:13        0.59
  YS02006553           JUNCTION     0.78     1.04     7.32     0  02:40        1.00
  YS02006561           JUNCTION     0.19     0.32     6.98     0  02:48        0.31
  YS02006556           JUNCTION     0.76     0.98     7.29     0  02:51        0.98
  YS02006558           JUNCTION     0.80     1.03     7.29     0  02:51        1.02
  YS02001783           JUNCTION     0.34     0.55     6.69     0  02:46        0.54
  YS02001784           JUNCTION     0.37     0.57     6.63     0  02:46        0.56
  YS02001786           JUNCTION     0.31     0.48     6.51     0  02:47        0.47
  YS02001788           JUNCTION     0.23     0.37     6.35     0  02:47        0.37
  YS02001790           JUNCTION     0.28     0.45     6.09     0  02:47        0.44
  YS02001791           JUNCTION     0.18     0.27     5.74     0  02:41        0.27
  YS02001793           JUNCTION     0.38     0.99     5.82     0  02:21        0.86
  WS02004139           JUNCTION     0.63     0.65     5.56     0  02:38        0.65
  WSC                  OUTFALL      0.27     0.35     1.02     0  02:37        0.35
  3                    OUTFALL      0.11     0.23     6.23     0  02:31        0.19
  4                    OUTFALL      0.00     0.00     7.00     0  00:00        0.00
  5                    OUTFALL      0.00     0.00     5.00     0  00:00        0.00
  JK-storage           STORAGE      4.23     4.88     5.68     0  02:22        4.87
  CC-storage           STORAGE      0.99     1.38     8.38     0  03:46        1.38
  XR-storage           STORAGE      7.44     7.72     5.72     0  02:27        7.72
  
  
  *******************
  Node Inflow Summary
  *******************
  
  -------------------------------------------------------------------------------------------------
                                  Maximum  Maximum                  Lateral       Total        Flow
                                  Lateral    Total  Time of Max      Inflow      Inflow     Balance
                                   Inflow   Inflow   Occurrence      Volume      Volume       Error
  Node                 Type           LPS      LPS  days hr:min    10^6 ltr    10^6 ltr     Percent
  -------------------------------------------------------------------------------------------------
  WS02001211           JUNCTION      7.35   293.97     0  02:03       0.207        7.22       0.528
  WS02001212           JUNCTION      0.00   293.82     0  02:53           0        7.18       0.270
  WS02001213           JUNCTION      0.00   294.40     0  02:53           0        7.16       0.301
  WS02003069           JUNCTION      0.32   766.59     0  02:35     0.00902        10.9       0.195
  WS02003072           JUNCTION      0.00   766.54     0  02:35           0        10.9       0.256
  WS02003073           JUNCTION      1.82   768.36     0  02:36      0.0514        10.9       0.276
  WS02003060           JUNCTION     16.53   766.28     0  02:34       0.466        10.9       0.188
  WS02003066           JUNCTION      0.00   461.80     0  02:32           0        3.34       0.065
  WS02003059           JUNCTION      0.00   295.51     0  02:52           0        7.14       0.525
  WS02003067           JUNCTION      0.00   461.71     0  02:32           0        3.34       0.160
  WS02004401           JUNCTION      0.00   467.96     0  02:26           0        3.48       0.357
  WS02004402           JUNCTION      0.00   466.69     0  02:26           0        3.46       0.358
  WS02004403           JUNCTION      0.00   465.43     0  02:27           0        3.45       0.342
  WS02004404           JUNCTION      0.16   465.19     0  02:27     0.00457        3.44       0.293
  WS02004406           JUNCTION      0.00   465.17     0  02:27           0        3.42       0.682
  WS02004409           JUNCTION      0.00   464.71     0  02:30           0         3.4       0.164
  WS02004410           JUNCTION      0.00   463.68     0  02:31           0        3.39       0.224
  WS02004411           JUNCTION      0.00   462.99     0  02:31           0        3.38       0.257
  WS02004412           JUNCTION      0.00   462.39     0  02:32           0        3.37       0.316
  WS02004413           JUNCTION      0.00   462.13     0  02:32           0        3.36       0.531
  WS02004405           JUNCTION      0.04   465.17     0  02:27     0.00107        3.43       0.407
  WS02006109           JUNCTION      1.23   466.01     0  02:24      0.0347         3.5       0.328
  WS02006110           JUNCTION      0.00   466.23     0  02:24           0        3.49       0.303
  WS02006111           JUNCTION      0.00   479.22     0  02:24           0        3.48       0.033
  WS02006112           JUNCTION     14.39   477.04     0  02:24       0.037        3.51       0.474
  WS02006113           JUNCTION      0.00   466.60     0  02:24           0        3.48       0.076
  WS02006115           JUNCTION      0.00   473.08     0  02:25           0        3.49       0.270
  WS02006116           JUNCTION      0.00   469.92     0  02:26           0        3.49       0.277
  WS02006230           JUNCTION     10.28   207.55     0  02:33        0.29        2.32       0.306
  WS02006231           JUNCTION      0.00   195.99     0  02:32           0        2.03      -0.106
  WS02006232           JUNCTION      0.00   195.52     0  02:32           0        2.02       0.198
  WS02006234           JUNCTION      0.00   195.51     0  02:32           0        2.01      -0.123
  WS02006235           JUNCTION      0.00   203.90     0  02:31           0        2.19       0.142
  WS02006238           JUNCTION      0.00   128.15     0  02:15           0       0.496      -0.106
  WS02006240           JUNCTION      0.00    70.96     0  02:16           0       0.347       0.488
  WS02006242           JUNCTION      0.00    65.30     0  02:17           0       0.274       0.377
  WS02006243           JUNCTION      0.00    65.91     0  02:18           0       0.224      -0.300
  WS02006245           JUNCTION      0.00    65.45     0  02:16           0       0.214       0.733
  WS02006247           JUNCTION      0.00    65.52     0  02:16           0       0.213       0.056
  WS02006248           JUNCTION      0.00    65.56     0  02:15           0       0.213      -0.048
  WS02006249           JUNCTION      0.00    65.66     0  02:15           0       0.214       0.253
  WS02006239           JUNCTION      0.00    84.41     0  02:16           0       0.423      -0.185
  WS02006251           JUNCTION      0.08    65.84     0  02:14     0.00217       0.214       0.035
  WS02006252           JUNCTION      0.00     0.00     0  00:00           0           0       0.000 ltr
  WS02006253           JUNCTION      2.17    65.80     0  02:14     0.00478       0.212       0.064
  WS02006256           JUNCTION      0.00   600.00     0  02:22           0         4.7       0.176
  WS02004138           JUNCTION      0.00   285.00     0  02:02           0        7.04       0.056
  WS02004407           JUNCTION      0.00   464.78     0  02:30           0         3.4       0.074
  WS02006228           JUNCTION      0.00   464.97     0  02:24           0        3.47       0.214
  WS02006229           JUNCTION      0.00   464.60     0  02:23           0         3.5       0.320
  WS02006280           JUNCTION      0.00   325.65     0  02:14           0        1.19       0.006
  WS02006284           JUNCTION      0.10   325.61     0  02:14      0.0027        1.19       0.095
  WS02006287           JUNCTION      0.00   325.44     0  02:14           0        1.19       0.061
  WSF200               JUNCTION      0.00   461.78     0  02:33           0        3.34       0.050
  HS02004901           JUNCTION     17.78    17.78     0  02:08      0.0445      0.0446       4.100
  HS02004881           JUNCTION      7.23    64.15     0  02:14      0.0194       0.207       0.030
  HS02004876           JUNCTION     11.61    57.12     0  02:14      0.0373       0.188       0.285
  HS02004870           JUNCTION     12.80    45.73     0  02:14      0.0368       0.151       0.070
  HS02004862           JUNCTION     10.51    33.74     0  02:15      0.0425       0.115       0.149
  HS02004856           JUNCTION      9.49    23.30     0  02:14      0.0277      0.0735       1.997
  HS02004852           JUNCTION      0.00    14.38     0  02:15           0      0.0459       0.114
  HS02004848           JUNCTION     21.31    21.31     0  02:17      0.0881      0.0881       0.049
  HS02004842           JUNCTION      0.00     7.73     0  02:26           0      0.0553      30.769
  HS02004837           JUNCTION     26.94    33.22     0  02:14       0.243       0.285       0.275
  HS02004830           JUNCTION      0.15    33.34     0  02:14     0.00423       0.276       0.449
  HS02004824           JUNCTION     24.06    57.11     0  02:17       0.115        0.39       0.138
  HS02004817           JUNCTION      0.60    57.70     0  02:18      0.0169       0.406       4.279
  HS02004807           JUNCTION     24.05    79.71     0  02:16      0.0676       0.457       0.933
  HS02004802           JUNCTION      0.00    80.31     0  02:17           0       0.453       0.904
  HS02004799           JUNCTION     18.55   209.69     0  02:12      0.0547       0.642       0.357
  HS02004792           JUNCTION     82.47   191.43     0  02:12       0.236       0.588       0.068
  HS02004788           JUNCTION     26.87   111.24     0  02:12       0.123       0.353       0.108
  HS02004785           JUNCTION      0.15    84.72     0  02:12     0.00423       0.232       0.209
  HS02004777           JUNCTION      0.03    85.10     0  02:10    0.000846       0.232       2.282
  HS02004770           JUNCTION     69.97    86.37     0  02:10        0.19       0.233       1.345
  HS02004480           JUNCTION      0.00   247.47     0  02:12           0       0.753       0.103
  HS02004479           JUNCTION      0.00    38.52     0  02:14           0       0.124       0.593
  HS02004478           JUNCTION      0.00   325.43     0  02:14           0        1.19       0.050
  YS02001745           JUNCTION    125.11   352.39     0  03:09        1.26        1.29       0.901
  YS02001748           JUNCTION      0.04   452.59     0  03:10     0.00127        1.29       1.752
  YS02001751           JUNCTION      0.01   432.59     0  02:46     0.00031        1.25       1.852
  YS02001754           JUNCTION      0.26   204.05     0  02:50     0.00733        1.21       1.986
  YS02001762           JUNCTION      0.00   188.66     0  02:44           0        1.29       1.640
  YS02001765           JUNCTION      0.00   187.53     0  02:44           0        1.29       1.889
  YS02001767           JUNCTION      0.54   186.59     0  02:44      0.0151        1.31       2.770
  YS02001770           JUNCTION    159.84   182.77     0  02:44        1.45        1.47       2.175
  YS02001774           JUNCTION      0.00   117.38     0  03:54           0       0.163      18.204
  YS02001779           JUNCTION      0.01   117.45     0  03:54    0.000141       0.128      13.284
  YS02001882           JUNCTION      0.00     7.97     0  02:55           0     0.00975      23.738
  YS02001884           JUNCTION      0.00    17.24     0  02:09           0       0.034      18.426
  YS02001759           JUNCTION    156.02   348.51     0  02:44        1.35         2.6       0.881
  YS02001887           JUNCTION    204.33   209.78     0  02:36        1.58         1.6       0.477
  YS02001890           JUNCTION      0.00   211.22     0  02:36           0        1.57       0.532
  YS02001898           JUNCTION      0.00   208.70     0  02:41           0        1.56       0.166
  YS02001901           JUNCTION      0.00   212.62     0  02:41           0        1.55       0.385
  YS02001904           JUNCTION      0.00   224.11     0  02:37           0        1.55       0.357
  YS02001907           JUNCTION      0.00   400.64     0  02:39           0        3.37       0.680
  YS02001910           JUNCTION      0.00   183.65     0  03:00           0        1.82       0.590
  YS02001915           JUNCTION    111.72   175.58     0  02:57        1.07        1.83       0.278
  YS02001918           JUNCTION      0.00    60.91     0  02:57           0        0.76       0.184
  YS02001619           JUNCTION    108.74   108.74     0  02:51        1.06        1.06       1.125
  YS02001629           JUNCTION      0.00   220.72     0  02:51           0       0.986       2.897
  YS02001641           JUNCTION      0.00   264.76     0  03:03           0        2.13       0.986
  YS02001644           JUNCTION    118.94   601.03     0  03:51        1.21        5.57       0.462
  YS02001652           JUNCTION      0.00   237.55     0  02:41           0        1.11       2.094
  YS02001655           JUNCTION      0.15   410.26     0  02:41     0.00434        1.14       2.119
  YS02001920           JUNCTION      2.87    57.17     0  03:01      0.0809       0.762       0.311
  YS02001923           JUNCTION      0.04    54.30     0  03:01     0.00106       0.682       0.056
  YS02001926           JUNCTION      0.05    54.34     0  03:01     0.00147       0.683       0.386
  YS02001929           JUNCTION     54.30    54.30     0  03:01       0.682       0.682       0.055
  YS02001658           JUNCTION      0.00   506.53     0  03:06           0        1.21       1.837
  YS02001661           JUNCTION      0.00   475.25     0  03:33           0        1.48       0.866
  YS02001664           JUNCTION    145.24   396.11     0  03:32        1.17        1.44       0.416
  YS02001622           JUNCTION      0.00   158.56     0  02:51           0        1.05       3.079
  YS02001633           JUNCTION    120.92   264.66     0  03:03        1.25        2.19       1.473
  YS02001649           JUNCTION      0.00   570.75     0  02:44           0         4.3       0.864
  YS02001757           JUNCTION      0.00   947.93     0  02:50           0        5.84       1.599
  YS02001895           JUNCTION      0.00   208.43     0  02:38           0        1.56       0.266
  YS02001625           JUNCTION      0.00   221.20     0  02:51           0        1.02       4.015
  YS02163301           JUNCTION      0.00   147.47     0  03:05           0       0.975       2.505
  YS02163601           JUNCTION      0.11   264.99     0  03:03      0.0031        2.15       1.411
  YS02164001           JUNCTION      0.00   264.86     0  03:03           0        2.13       0.932
  YS02001647           JUNCTION      0.00   380.24     0  03:03           0        3.71       0.751
  YSB1154              JUNCTION     20.66    20.66     0  02:12      0.0664      0.0677       2.179
  YSB6556              JUNCTION      0.00    20.69     0  02:14           0      0.0686       1.854
  YSB1174              JUNCTION     20.16    20.16     0  02:07      0.0482      0.0492       2.678
  YSB1171              JUNCTION      0.00    38.49     0  02:13           0       0.123       5.405
  YS02006553           JUNCTION      0.00   397.62     0  02:40           0        3.36       0.435
  YS02006561           JUNCTION      0.00   599.94     0  02:48           0        4.75       0.002
  YS02006556           JUNCTION      0.00   397.91     0  02:46           0        3.36       0.316
  YS02006558           JUNCTION    173.07   584.04     0  02:48        1.45        4.78       0.111
  YS02001783           JUNCTION      0.00   557.58     0  02:46           0        4.75       0.038
  YS02001784           JUNCTION      1.06   556.31     0  02:46      0.0299        4.78       0.061
  YS02001786           JUNCTION      0.06   552.69     0  02:47     0.00159        4.77       0.059
  YS02001788           JUNCTION      0.07   551.35     0  02:47       0.002        4.77       0.035
  YS02001790           JUNCTION      0.15   551.43     0  02:47     0.00437        4.78       0.043
  YS02001791           JUNCTION      0.00   549.55     0  02:47           0        4.77       0.017
  YS02001793           JUNCTION      0.00   793.53     0  04:02           0        4.84       0.159
  WS02004139           JUNCTION      0.32   285.32     0  07:50     0.00905        7.05       0.512
  WSC                  OUTFALL       0.00   768.37     0  02:37           0        10.9       0.000
  3                    OUTFALL       0.00   574.62     0  02:31           0        2.88       0.000
  4                    OUTFALL       0.00     0.00     0  00:00           0           0       0.000 ltr
  5                    OUTFALL       0.00     0.00     0  00:00           0           0       0.000 ltr
  JK-storage           STORAGE       0.00  1080.37     0  04:02           0        4.99       0.211
  CC-storage           STORAGE       0.00   948.31     0  02:50           0        3.95       1.670
  XR-storage           STORAGE     402.22   402.22     0  02:49        7.77        8.37      -0.000
  
  
  **********************
  Node Surcharge Summary
  **********************
  
  Surcharging occurs when water rises above the top of the highest conduit.
  ---------------------------------------------------------------------
                                               Max. Height   Min. Depth
                                   Hours       Above Crown    Below Rim
  Node                 Type      Surcharged         Meters       Meters
  ---------------------------------------------------------------------
  WS02006109           JUNCTION        0.39          0.071        1.749
  WS02006256           JUNCTION        0.01          0.827        0.223
  WS02006228           JUNCTION        0.37          0.081        2.119
  YS02001748           JUNCTION        4.52          0.296        0.894
  YS02001751           JUNCTION        4.83          1.039        0.161
  YS02001754           JUNCTION        5.23          0.921        0.229
  YS02001762           JUNCTION        5.47          1.021        0.129
  YS02001765           JUNCTION        5.45          0.967        0.133
  YS02001767           JUNCTION        5.43          0.923        0.107
  YS02001770           JUNCTION        5.42          0.920        0.000
  YS02001774           JUNCTION        5.47          1.039        0.011
  YS02001779           JUNCTION        5.16          0.680        0.000
  YS02001759           JUNCTION        5.49          1.059        0.151
  YS02001619           JUNCTION        4.75          0.610        0.000
  YS02001629           JUNCTION        4.78          0.470        0.000
  YS02001641           JUNCTION        5.46          0.937        0.163
  YS02001644           JUNCTION        5.46          0.920        0.000
  YS02001652           JUNCTION        5.29          1.107        0.023
  YS02001655           JUNCTION        4.85          1.200        0.000
  YS02001658           JUNCTION        4.54          1.143        0.157
  YS02001661           JUNCTION        0.07          0.923        0.467
  YS02001622           JUNCTION        4.83          0.620        0.000
  YS02001633           JUNCTION        5.44          0.922        0.138
  YS02001649           JUNCTION        5.47          1.050        0.000
  YS02001757           JUNCTION        5.53          1.164        0.046
  YS02001625           JUNCTION        5.39          0.780        0.000
  YS02163301           JUNCTION        5.43          0.886        0.144
  YS02163601           JUNCTION        5.47          0.990        0.090
  YS02164001           JUNCTION        5.44          0.921        0.179
  YS02001647           JUNCTION        5.34          0.803        0.097
  YS02006553           JUNCTION        0.02          0.040        1.150
  
  
  *********************
  Node Flooding Summary
  *********************
  
  Flooding refers to all water that overflows a node, whether it ponds or not.
  --------------------------------------------------------------------------
                                                             Total   Maximum
                                 Maximum   Time of Max       Flood    Ponded
                        Hours       Rate    Occurrence      Volume     Depth
  Node                 Flooded       LPS   days hr:min    10^6 ltr    Meters
  --------------------------------------------------------------------------
  YS02001770              0.01     13.83      0  02:53       0.000     0.000
  YS02001779              1.02    117.42      0  03:54       0.104     0.000
  YS02001619              0.01     22.95      0  03:09       0.000     0.000
  YS02001629              0.01     24.21      0  03:12       0.000     0.000
  YS02001644              4.32    600.94      0  03:51       4.081     0.000
  YS02001655              0.01    191.17      0  02:53       0.001     0.000
  YS02001622              0.01     40.33      0  03:10       0.000     0.000
  YS02001649              0.01     37.59      0  03:34       0.000     0.000
  YS02001625              0.02     15.15      0  03:11       0.000     0.000
  XR-storage              2.55    117.22      0  02:49       0.550     0.000
  
  
  **********************
  Storage Volume Summary
  **********************
  
  --------------------------------------------------------------------------------------------------
                         Average     Avg  Evap Exfil       Maximum     Max    Time of Max    Maximum
                          Volume    Pcnt  Pcnt  Pcnt        Volume    Pcnt     Occurrence    Outflow
  Storage Unit           1000 m3    Full  Loss  Loss       1000 m3    Full    days hr:min        LPS
  --------------------------------------------------------------------------------------------------
  JK-storage               0.212      73     0     0         0.245      84       0  02:22     804.22
  CC-storage               2.757      18     0     0         3.859      25       0  03:46     144.82
  XR-storage               0.893      96     0     0         0.926     100       0  02:27     285.00
  
  
  ***********************
  Outfall Loading Summary
  ***********************
  
  -----------------------------------------------------------
                         Flow       Avg       Max       Total
                         Freq      Flow      Flow      Volume
  Outfall Node           Pcnt       LPS       LPS    10^6 ltr
  -----------------------------------------------------------
  WSC                  100.00    488.21    768.37      10.864
  3                     82.93    243.60    574.62       2.876
  4                      0.00      0.00      0.00       0.000
  5                      0.00      0.00      0.00       0.000
  -----------------------------------------------------------
  System                45.73    731.81   1337.44      13.740
  
  
  ********************
  Link Flow Summary
  ********************
  
  -----------------------------------------------------------------------------
                                 Maximum  Time of Max   Maximum    Max/    Max/
                                  |Flow|   Occurrence   |Veloc|    Full    Full
  Link                 Type          LPS  days hr:min     m/sec    Flow   Depth
  -----------------------------------------------------------------------------
  WS02003066WSF200     CONDUIT    461.78     0  02:33      2.65    0.08    0.21
  WS02006287WS02006284 CONDUIT    325.52     0  02:14      1.89    0.15    0.27
  WS02006284WS02006280 CONDUIT    325.65     0  02:14      2.13    0.14    0.25
  WS02006280WS02006229 CONDUIT    325.66     0  02:14      3.43    0.07    0.18
  WS02006229WS02006228 CONDUIT    464.97     0  02:24      0.93    1.54    1.00
  WS02006256WS02006235 CONDUIT    166.35     0  06:18      2.53    1.76    1.00
  WS02006253WS02006251 CONDUIT     65.77     0  02:14      0.58    0.20    0.34
  WS02006252WS02006251 CONDUIT      0.00     0  00:00      0.00    0.00    0.00
  WS02006251WS02006249 CONDUIT     65.66     0  02:15      0.63    0.19    0.31
  WS02006249WS02006248 CONDUIT     65.56     0  02:15      0.74    0.36    0.28
  WS02006248WS02006247 CONDUIT     65.52     0  02:16      0.71    0.14    0.29
  WS02006247WS02006245 CONDUIT     65.45     0  02:16      0.67    0.52    0.32
  WS02006245WS02006243 CONDUIT     65.91     0  02:18      0.81    0.19    0.35
  WS02006243WS02006242 CONDUIT     65.30     0  02:17      0.66    0.14    0.47
  WS02006242WS02006240 CONDUIT     63.95     0  02:16      0.55    0.25    0.57
  WS02006240WS02006239 CONDUIT     61.69     0  02:30      0.75    0.19    0.59
  WS02006239WS02006238 CONDUIT     78.51     0  04:30      0.66    0.25    0.71
  WS02006238WS02006235 CONDUIT    118.13     0  05:17      0.99    0.26    0.76
  WS02006235WS02006234 CONDUIT    195.51     0  02:32      0.90    2.06    0.71
  WS02006234WS02006232 CONDUIT    195.52     0  02:32      0.76    0.40    0.80
  WS02006232WS02006231 CONDUIT    195.99     0  02:32      0.69    0.41    0.79
  WS02006231WS02006230 CONDUIT    197.27     0  02:33      1.02    2.99    0.71
  WS02006230WS02006229 CONDUIT    208.89     0  02:35      0.54    4.65    1.00
  WS02006228WS02006109 CONDUIT    464.78     0  02:24      0.92    2.03    1.00
  WS02006116WS02004401 CONDUIT    467.96     0  02:26      0.71    0.65    0.78
  WS02006115WS02006116 CONDUIT    469.92     0  02:26      0.83    0.60    0.70
  WS02006113WS02006111 CONDUIT    479.22     0  02:24      2.34    0.57    0.43
  WS02006112WS02006115 CONDUIT    473.08     0  02:25      0.69    0.28    0.83
  WS02006111WS02006112 CONDUIT    467.93     0  02:24      1.33    0.22    0.66
  WS02006110WS02006113 CONDUIT    466.60     0  02:24      1.14    0.42    0.76
  WS02006109WS02006110 CONDUIT    466.23     0  02:24      0.93    0.90    0.97
  WS02004411WS02004412 CONDUIT    462.39     0  02:32      1.01    0.66    0.65
  WS02004401WS02004402 CONDUIT    466.69     0  02:26      0.69    0.56    0.81
  WS02004413WS02003067 CONDUIT    461.71     0  02:32      1.02    0.20    0.56
  WS02004412WS02004413 CONDUIT    462.13     0  02:32      0.89    0.31    0.73
  WS02004410WS02004411 CONDUIT    462.99     0  02:31      0.89    0.63    0.64
  WS02004409WS02004410 CONDUIT    463.68     0  02:31      0.93    0.60    0.62
  WS02004407WS02004409 CONDUIT    464.71     0  02:30      1.43    0.16    0.44
  WS02004406WS02004407 CONDUIT    464.78     0  02:30      0.95    0.21    0.59
  WS02004405WS02004406 CONDUIT    465.17     0  02:27      0.62    0.92    0.91
  WS02004404WS02004405 CONDUIT    465.13     0  02:27      0.62    4.56    0.91
  WS02004403WS02004404 CONDUIT    465.03     0  02:27      0.64    0.34    0.88
  WS02004402WS02004403 CONDUIT    465.43     0  02:27      0.67    0.67    0.83
  WS02004139WS02001211 CONDUIT    286.62     0  02:03      0.54    0.36    0.53
  WS02004138WS02004139 CONDUIT    285.00     0  07:50      2.39    0.06    0.39
  WS02003067WS02003066 CONDUIT    461.80     0  02:32      1.11    0.15    0.40
  WS02001213WS02003059 CONDUIT    295.51     0  02:52      0.59    0.49    0.70
  WS02001212WS02001213 CONDUIT    294.40     0  02:53      1.19    0.45    0.40
  WS02001211WS02001212 CONDUIT    293.82     0  02:53      0.67    0.22    0.57
  WS02003072WS02003073 CONDUIT    766.54     0  02:36      1.61    1.66    0.44
  WS02003069WS02003072 CONDUIT    766.54     0  02:35      1.52    0.37    0.46
  WS02003060WS02003069 CONDUIT    766.27     0  02:35      1.78    0.30    0.41
  WS02003059WS02003060 CONDUIT    297.02     0  02:52      0.82    0.19    0.60
  HS02004901HS02004770 CONDUIT     16.75     0  02:11      0.06    0.06    0.38
  HS02004876HS02004881 CONDUIT     57.46     0  02:14      0.83    0.61    0.10
  HS02004870HS02004876 CONDUIT     45.70     0  02:15      0.57    0.03    0.12
  HS02004842HS02004848 CONDUIT      7.73     0  02:26      0.04    0.00    0.29
  HS02004837HS02004842 CONDUIT      8.03     0  02:27      0.42    0.00    0.30
  HS02004830HS02004837 CONDUIT     33.19     0  02:14      0.51    0.03    0.09
  HS02004824HS02004830 CONDUIT     33.34     0  02:15      0.55    0.04    0.09
  HS02004817HS02004824 CONDUIT     57.10     0  02:18      0.19    0.03    0.44
  HS02004770HS02004777 CONDUIT     85.07     0  02:10      0.31    0.16    0.40
  HS02004799HS02004480 CONDUIT    209.40     0  02:12      0.75    0.26    0.40
  HS02004792HS02004799 CONDUIT    191.30     0  02:12      0.86    0.12    0.32
  HS02004788HS02004792 CONDUIT    111.16     0  02:13      0.98    0.07    0.16
  HS02004785HS02004788 CONDUIT     84.62     0  02:12      0.64    0.64    0.19
  HS02004777HS02004785 CONDUIT     84.57     0  02:12      0.37    0.10    0.33
  HS02004480HS02004478 CONDUIT    247.39     0  02:13      1.16    1.04    0.30
  HS02004479HS02004480 CONDUIT     38.87     0  02:15      0.15    0.04    0.39
  HS02004862HS02004870 CONDUIT     33.70     0  02:15      0.57    0.04    0.08
  HS02004848HS02004852 CONDUIT     14.38     0  02:15      0.39    0.02    0.05
  HS02004856HS02004862 CONDUIT     23.26     0  02:15      0.42    0.02    0.08
  HS02004852HS02004856 CONDUIT     14.34     0  02:16      0.19    0.02    0.11
  HS02004802HS02004478 CONDUIT     81.02     0  02:17      0.37    0.07    0.32
  HS02004478WS02006287 CONDUIT    325.44     0  02:14      1.59    0.09    0.23
  HS02004817HS02004807 CONDUIT     58.70     0  02:19      0.15    0.03    0.58
  HS02004807HS02004802 CONDUIT     80.31     0  02:17      0.32    0.15    0.37
  YS02001759YS02001757 CONDUIT    351.04     0  02:44      0.45    0.25    1.00
  YS02001762YS02001759 CONDUIT    192.52     0  02:44      0.25    0.22    1.00
  YS02001765YS02001762 CONDUIT    188.66     0  02:44      0.24    0.18    1.00
  YS02001770YS02001767 CONDUIT    186.05     0  02:44      0.32    0.74    1.00
  YS02001774YS02001770 CONDUIT    117.38     0  03:54      0.15    0.07    1.00
  YS02001779YS02001774 CONDUIT    117.44     0  03:54      0.15    0.06    1.00
  YS02001649YS02001757 CONDUIT    570.10     0  02:43      0.73    0.35    1.00
  YS02001767YS02001765 CONDUIT    187.53     0  02:44      0.26    0.24    1.00
  YS02006561YS02001783 CONDUIT    557.58     0  02:46      2.06    0.29    0.54
  YS02001783YS02001784 CONDUIT    555.25     0  02:46      1.49    0.77    0.70
  YS02001784YS02001785 CONDUIT    552.63     0  02:47      1.60    1.29    0.65
  YS02001788YS02001790 CONDUIT    551.28     0  02:47      2.15    0.41    0.51
  YS02001790YS02001791 CONDUIT    549.55     0  02:47      2.55    0.60    0.45
  YS02001791YS02001793 CONDUIT    556.10     0  02:50      4.10    0.24    0.66
  YS02001910YS02001907 CONDUIT    186.24     0  02:52      0.49    0.10    0.89
  YS02001786YS02001788 CONDUIT    551.28     0  02:47      2.05    1.06    0.53
  YS02001915YS02001910 CONDUIT    183.65     0  03:00      0.45    0.09    0.68
  YS02001918YS02001915 CONDUIT     64.44     0  02:57      0.44    0.04    0.39
  YS02001923YS02001920 CONDUIT     54.30     0  03:01      0.55    0.02    0.20
  YS02001926YS02001923 CONDUIT     54.27     0  03:01      0.61    0.08    0.17
  YS02001929YS02001926 CONDUIT     54.29     0  03:01      0.66    0.03    0.16
  YS02001920YS02001918 CONDUIT     60.91     0  02:57      0.55    0.06    0.26
  YS02001629YS02163301 CONDUIT    147.47     0  03:05      0.19    0.18    1.00
  YS02001619YS02001622 CONDUIT    158.56     0  02:51      0.75    0.23    1.00
  YS02001622YS02001625 CONDUIT    221.20     0  02:51      0.31    0.12    1.00
  YS02001625YS02001629 CONDUIT    220.72     0  02:51      0.31    0.10    1.00
  YS02163301YS02001633 CONDUIT    147.22     0  03:05      0.19    0.14    1.00
  YS02163601YS02164001 CONDUIT    264.86     0  03:03      0.34    0.23    1.00
  YS02164001YS02001641 CONDUIT    264.76     0  03:03      0.34    0.36    1.00
  YS02001641YS02001644 CONDUIT    264.75     0  03:03      0.34    0.86    1.00
  YS02001647YS02001649 CONDUIT    380.22     0  03:03      0.48    0.20    1.00
  YS02006553YS02006556 CONDUIT    397.91     0  02:46      0.51    0.34    0.97
  YS02006556YS02006558 CONDUIT    412.98     0  02:48      0.53    0.33    0.99
  YSB6556YSB1171       CONDUIT     21.09     0  02:15      0.08    0.02    0.66
  YS02001907YS02006553 CONDUIT    397.62     0  02:40      0.44    0.47    1.00
  YS02006558YS02006561 CONDUIT    599.94     0  02:48      2.98    1.33    0.68
  YS02001633YS02163601 CONDUIT    264.88     0  03:03      0.34    0.28    1.00
  YS02001644YS02001647 CONDUIT    380.24     0  03:03      0.48    0.22    1.00
  YS02001745YS02001748 CONDUIT    452.55     0  03:10      1.57    0.17    0.93
  YS02001748YS02001751 CONDUIT    432.57     0  02:46      1.22    0.22    1.00
  YS02001751YS02001754 CONDUIT    203.79     0  02:50      1.05    0.10    1.00
  YS02001754YS02001757 CONDUIT    202.34     0  02:50      0.33    0.08    1.00
  YS02001882YS02001884 CONDUIT      8.85     0  02:55      0.06    0.01    0.61
  YS02001884YS02001887 CONDUIT     17.24     0  02:09      0.07    0.02    0.71
  YS02001890YS02001895 CONDUIT    208.43     0  02:38      0.38    0.10    0.68
  YS02001895YS02001898 CONDUIT    208.70     0  02:41      0.52    0.36    0.54
  YS02001898YS02001901 CONDUIT    212.62     0  02:41      0.42    0.14    0.62
  YS02001901YS02001904 CONDUIT    224.11     0  02:37      0.41    0.35    0.67
  YS02001904YS02001907 CONDUIT    229.62     0  02:39      0.33    0.08    0.83
  YS02001887YS02001890 CONDUIT    211.22     0  02:36      0.33    0.36    0.76
  YS02001652YS02001649 CONDUIT    237.04     0  02:41      0.36    0.12    1.00
  YS02001655YS02001652 CONDUIT    237.55     0  02:41      1.12    0.12    1.00
  YS02001658YS02001655 CONDUIT    410.11     0  02:41      1.41    0.17    1.00
  YS02001661YS02001658 CONDUIT    506.53     0  03:06      1.65    0.20    1.00
  YS02001664YS02001661 CONDUIT    475.25     0  03:33      1.41    0.15    0.71
  YSB1154YSB6556       CONDUIT     20.69     0  02:14      0.19    0.04    0.55
  YSB1174YSB1171       CONDUIT     18.76     0  02:08      0.07    0.03    0.66
  YSB1171HS02004479    CONDUIT     38.52     0  02:14      0.54    0.03    0.52
  HS02004881HS02006253 CONDUIT     64.11     0  02:14      2.02    0.01    0.05
  YS02001793JiankangQianchi CONDUIT   1080.37     0  04:02      1.88    0.09    1.00
  YS02001757CaochengTiaoxuchi CONDUIT    948.31     0  02:50      1.86    0.42    1.00
  WSF200WS02003060     CONDUIT    461.99     0  02:33      1.56    0.10    0.31
  1                    CONDUIT    768.37     0  02:37      3.10    0.27    0.35
  2                    CONDUIT      0.00     0  00:00      0.00    0.00    0.00
  3                    CONDUIT    574.62     0  02:31     10.30    0.92    0.86
  4                    CONDUIT      0.00     0  00:00      0.00    0.00    0.00
  CC-Pump-1            PUMP         0.00     0  00:00              0.00
  CC-Pump-2            PUMP         0.00     0  00:00              0.00
  JK-Pump-1            PUMP       300.00     0  02:15              1.00
  JK-Pump-2            PUMP       300.00     0  02:22              1.00
  XR-Pump-1            PUMP        95.00     0  00:00              1.00
  XR-Pump-2            PUMP        95.00     0  00:25              1.00
  XR-Pump-3            PUMP        95.00     0  02:02              1.00
  XR-Pump-4            PUMP         0.00     0  00:00              0.00
  
  
  ***************************
  Flow Classification Summary
  ***************************
  
  -------------------------------------------------------------------------------------
                      Adjusted    ---------- Fraction of Time in Flow Class ---------- 
                       /Actual         Up    Down  Sub   Sup   Up    Down  Norm  Inlet 
  Conduit               Length    Dry  Dry   Dry   Crit  Crit  Crit  Crit  Ltd   Ctrl  
  -------------------------------------------------------------------------------------
  WS02003066WSF200        1.00   0.09  0.00  0.00  0.00  0.90  0.00  0.00  0.68  0.00
  WS02006287WS02006284    1.00   0.03  0.02  0.00  0.54  0.41  0.00  0.00  0.76  0.00
  WS02006284WS02006280    1.00   0.04  0.00  0.00  0.00  0.00  0.00  0.96  0.00  0.00
  WS02006280WS02006229    1.00   0.04  0.00  0.00  0.00  0.00  0.00  0.96  0.00  0.00
  WS02006229WS02006228    1.00   0.00  0.00  0.00  1.00  0.00  0.00  0.00  0.00  0.00
  WS02006256WS02006235    1.00   0.06  0.00  0.00  0.92  0.03  0.00  0.00  0.04  0.00
  WS02006253WS02006251    1.00   0.01  0.02  0.00  0.97  0.00  0.00  0.00  0.00  0.00
  WS02006252WS02006251    1.00   1.00  0.00  0.00  0.00  0.00  0.00  0.00  0.00  0.00
  WS02006251WS02006249    1.00   0.00  0.00  0.00  1.00  0.00  0.00  0.00  0.90  0.00
  WS02006249WS02006248    1.00   0.00  0.00  0.00  0.13  0.00  0.87  0.00  0.00  0.00
  WS02006248WS02006247    1.00   0.01  0.00  0.00  0.98  0.00  0.00  0.01  0.80  0.00
  WS02006247WS02006245    1.00   0.01  0.00  0.00  0.97  0.00  0.00  0.02  0.00  0.00
  WS02006245WS02006243    1.00   0.01  0.00  0.00  0.93  0.00  0.00  0.06  0.08  0.00
  WS02006243WS02006242    1.00   0.01  0.00  0.00  0.96  0.00  0.00  0.03  0.36  0.00
  WS02006242WS02006240    1.00   0.01  0.03  0.00  0.95  0.00  0.01  0.00  0.01  0.00
  WS02006240WS02006239    1.00   0.05  0.00  0.00  0.91  0.00  0.00  0.04  0.07  0.00
  WS02006239WS02006238    1.00   0.05  0.00  0.00  0.94  0.00  0.00  0.01  0.00  0.00
  WS02006238WS02006235    1.00   0.05  0.01  0.00  0.94  0.00  0.00  0.00  0.00  0.00
  WS02006235WS02006234    1.00   0.06  0.00  0.00  0.91  0.00  0.03  0.00  0.00  0.00
  WS02006234WS02006232    1.00   0.06  0.00  0.00  0.94  0.00  0.00  0.00  0.01  0.00
  WS02006232WS02006231    1.00   0.07  0.01  0.00  0.92  0.00  0.00  0.00  0.00  0.00
  WS02006231WS02006230    1.00   0.07  0.00  0.00  0.25  0.00  0.68  0.00  0.00  0.00
  WS02006230WS02006229    1.00   0.00  0.00  0.00  0.99  0.00  0.00  0.01  0.02  0.00
  WS02006228WS02006109    1.00   0.00  0.00  0.00  1.00  0.00  0.00  0.00  0.00  0.00
  WS02006116WS02004401    1.00   0.03  0.00  0.00  0.97  0.00  0.00  0.00  0.01  0.00
  WS02006115WS02006116    1.00   0.03  0.00  0.00  0.94  0.00  0.00  0.03  0.00  0.00
  WS02006113WS02006111    1.00   0.02  0.00  0.00  0.01  0.98  0.00  0.00  0.12  0.00
  WS02006112WS02006115    1.00   0.02  0.01  0.00  0.97  0.00  0.00  0.00  0.00  0.00
  WS02006111WS02006112    1.00   0.02  0.00  0.00  0.98  0.00  0.00  0.00  0.92  0.00
  WS02006110WS02006113    1.00   0.00  0.01  0.00  0.98  0.00  0.00  0.00  0.00  0.00
  WS02006109WS02006110    1.00   0.00  0.00  0.00  0.99  0.00  0.00  0.00  0.00  0.00
  WS02004411WS02004412    1.00   0.07  0.00  0.00  0.93  0.00  0.00  0.00  0.00  0.00
  WS02004401WS02004402    1.00   0.03  0.00  0.00  0.97  0.00  0.00  0.00  0.04  0.00
  WS02004413WS02003067    1.00   0.08  0.01  0.00  0.00  0.00  0.91  0.00  0.00  0.00
  WS02004412WS02004413    1.00   0.08  0.00  0.00  0.92  0.00  0.00  0.00  0.00  0.00
  WS02004410WS02004411    1.00   0.07  0.00  0.00  0.93  0.00  0.00  0.00  0.00  0.00
  WS02004409WS02004410    1.00   0.07  0.00  0.00  0.93  0.00  0.00  0.00  0.00  0.00
  WS02004407WS02004409    1.00   0.07  0.00  0.00  0.92  0.01  0.00  0.00  0.73  0.00
  WS02004406WS02004407    1.00   0.00  0.07  0.00  0.93  0.00  0.00  0.00  0.00  0.00
  WS02004405WS02004406    1.00   0.00  0.00  0.00  1.00  0.00  0.00  0.00  0.04  0.00
  WS02004404WS02004405    1.00   0.00  0.00  0.00  1.00  0.00  0.00  0.00  0.01  0.00
  WS02004403WS02004404    1.00   0.00  0.03  0.00  0.97  0.00  0.00  0.00  0.04  0.00
  WS02004402WS02004403    1.00   0.03  0.00  0.00  0.97  0.00  0.00  0.00  0.00  0.00
  WS02004139WS02001211    1.00   0.00  0.00  0.00  1.00  0.00  0.00  0.00  0.00  0.00
  WS02004138WS02004139    1.00   0.00  0.00  0.00  1.00  0.00  0.00  0.00  1.00  0.00
  WS02003067WS02003066    1.00   0.09  0.01  0.00  0.91  0.00  0.00  0.00  0.00  0.00
  WS02001213WS02003059    1.00   0.00  0.00  0.00  1.00  0.00  0.00  0.00  0.00  0.00
  WS02001212WS02001213    1.00   0.00  0.00  0.00  0.51  0.00  0.49  0.00  0.00  0.00
  WS02001211WS02001212    1.00   0.00  0.00  0.00  1.00  0.00  0.00  0.00  0.00  0.00
  WS02003072WS02003073    1.00   0.00  0.00  0.00  0.00  0.00  0.00  1.00  0.00  0.00
  WS02003069WS02003072    1.00   0.00  0.00  0.00  1.00  0.00  0.00  0.00  0.40  0.00
  WS02003060WS02003069    1.00   0.00  0.00  0.00  0.99  0.01  0.00  0.00  0.24  0.00
  WS02003059WS02003060    1.00   0.00  0.00  0.00  1.00  0.00  0.00  0.00  0.02  0.00
  HS02004901HS02004770    1.00   0.03  0.00  0.00  0.97  0.00  0.00  0.00  0.02  0.00
  HS02004876HS02004881    1.00   0.00  0.00  0.00  0.98  0.01  0.00  0.00  0.00  0.00
  HS02004870HS02004876    1.00   0.00  0.00  0.00  1.00  0.00  0.00  0.00  0.95  0.00
  HS02004842HS02004848    1.00   0.00  0.04  0.00  0.96  0.00  0.00  0.00  0.67  0.00
  HS02004837HS02004842    1.00   0.00  0.00  0.00  1.00  0.00  0.00  0.00  0.11  0.00
  HS02004830HS02004837    1.00   0.00  0.00  0.00  1.00  0.00  0.00  0.00  0.99  0.00
  HS02004824HS02004830    1.00   0.00  0.00  0.00  1.00  0.00  0.00  0.00  0.00  0.00
  HS02004817HS02004824    1.00   0.00  0.00  0.00  1.00  0.00  0.00  0.00  1.00  0.00
  HS02004770HS02004777    1.00   0.00  0.03  0.00  0.97  0.00  0.00  0.00  0.07  0.00
  HS02004799HS02004480    1.00   0.00  0.01  0.00  0.95  0.00  0.04  0.00  0.00  0.00
  HS02004792HS02004799    1.00   0.00  0.00  0.00  1.00  0.00  0.00  0.00  0.98  0.00
  HS02004788HS02004792    1.00   0.00  0.00  0.00  1.00  0.00  0.00  0.00  0.98  0.00
  HS02004785HS02004788    1.00   0.00  0.00  0.00  1.00  0.00  0.00  0.00  0.00  0.00
  HS02004777HS02004785    1.00   0.00  0.00  0.00  1.00  0.00  0.00  0.00  0.20  0.00
  HS02004480HS02004478    1.00   0.04  0.00  0.00  0.62  0.00  0.00  0.35  0.00  0.00
  HS02004479HS02004480    1.00   0.01  0.00  0.00  0.99  0.00  0.00  0.00  0.15  0.00
  HS02004862HS02004870    1.00   0.00  0.00  0.00  1.00  0.00  0.00  0.00  0.06  0.00
  HS02004848HS02004852    1.00   0.04  0.00  0.00  0.96  0.00  0.00  0.00  0.71  0.00
  HS02004856HS02004862    1.00   0.00  0.07  0.00  0.93  0.00  0.00  0.00  0.75  0.00
  HS02004852HS02004856    1.00   0.03  0.01  0.00  0.96  0.00  0.00  0.00  0.83  0.00
  HS02004802HS02004478    1.00   0.04  0.01  0.00  0.96  0.00  0.00  0.00  0.01  0.00
  HS02004478WS02006287    1.00   0.05  0.00  0.00  0.77  0.18  0.00  0.00  0.73  0.00
  HS02004817HS02004807    1.00   0.00  0.03  0.00  0.97  0.00  0.00  0.00  0.00  0.00
  HS02004807HS02004802    1.00   0.03  0.00  0.00  0.96  0.00  0.00  0.00  0.01  0.00
  YS02001759YS02001757    1.00   0.00  0.00  0.00  1.00  0.00  0.00  0.00  0.17  0.00
  YS02001762YS02001759    1.00   0.00  0.00  0.00  1.00  0.00  0.00  0.00  0.04  0.00
  YS02001765YS02001762    1.00   0.00  0.00  0.00  1.00  0.00  0.00  0.00  0.21  0.00
  YS02001770YS02001767    1.00   0.00  0.00  0.00  1.00  0.00  0.00  0.00  0.00  0.00
  YS02001774YS02001770    1.00   0.00  0.04  0.00  0.96  0.00  0.00  0.00  0.06  0.00
  YS02001779YS02001774    1.00   0.00  0.00  0.00  1.00  0.00  0.00  0.00  0.25  0.00
  YS02001649YS02001757    1.00   0.00  0.00  0.00  1.00  0.00  0.00  0.00  0.19  0.00
  YS02001767YS02001765    1.00   0.00  0.00  0.00  1.00  0.00  0.00  0.00  0.01  0.00
  YS02006561YS02001783    1.00   0.07  0.00  0.00  0.00  0.93  0.00  0.00  0.57  0.00
  YS02001783YS02001784    1.00   0.00  0.07  0.00  0.93  0.00  0.00  0.00  0.00  0.00
  YS02001784YS02001785    1.00   0.00  0.00  0.00  1.00  0.00  0.00  0.00  0.24  0.00
  YS02001788YS02001790    1.00   0.00  0.00  0.00  0.07  0.93  0.00  0.00  0.67  0.00
  YS02001790YS02001791    1.00   0.00  0.00  0.00  0.00  1.00  0.00  0.00  0.66  0.00
  YS02001791YS02001793    1.00   0.00  0.00  0.00  0.43  0.57  0.00  0.00  0.37  0.00
  YS02001910YS02001907    1.00   0.00  0.00  0.00  0.99  0.00  0.00  0.01  0.13  0.00
  YS02001786YS02001788    1.00   0.00  0.00  0.00  0.07  0.93  0.00  0.00  0.00  0.00
  YS02001915YS02001910    1.00   0.00  0.00  0.00  1.00  0.00  0.00  0.00  0.23  0.00
  YS02001918YS02001915    1.00   0.00  0.00  0.00  0.99  0.00  0.00  0.00  0.66  0.00
  YS02001923YS02001920    1.00   0.00  0.00  0.00  1.00  0.00  0.00  0.00  1.00  0.00
  YS02001926YS02001923    1.00   0.00  0.02  0.00  0.00  0.00  0.98  0.00  0.00  0.00
  YS02001929YS02001926    1.00   0.00  0.03  0.00  0.97  0.00  0.00  0.00  0.87  0.00
  YS02001920YS02001918    1.00   0.00  0.00  0.00  1.00  0.00  0.00  0.00  0.00  0.00
  YS02001629YS02163301    1.00   0.05  0.01  0.00  0.94  0.00  0.00  0.00  0.00  0.00
  YS02001619YS02001622    1.00   0.03  0.00  0.00  0.97  0.00  0.00  0.00  0.00  0.00
  YS02001622YS02001625    1.00   0.03  0.00  0.00  0.97  0.00  0.00  0.00  0.12  0.00
  YS02001625YS02001629    1.00   0.04  0.03  0.00  0.92  0.00  0.01  0.00  0.00  0.00
  YS02163301YS02001633    1.00   0.00  0.05  0.00  0.95  0.00  0.00  0.00  0.00  0.00
  YS02163601YS02164001    1.00   0.00  0.02  0.00  0.98  0.00  0.00  0.00  0.00  0.00
  YS02164001YS02001641    1.00   0.00  0.02  0.00  0.98  0.00  0.00  0.00  0.07  0.00
  YS02001641YS02001644    1.00   0.00  0.00  0.00  1.00  0.00  0.00  0.00  0.00  0.00
  YS02001647YS02001649    1.00   0.00  0.07  0.00  0.93  0.00  0.00  0.00  0.01  0.00
  YS02006553YS02006556    1.00   0.00  0.00  0.00  1.00  0.00  0.00  0.00  0.03  0.00
  YS02006556YS02006558    1.00   0.00  0.00  0.00  1.00  0.00  0.00  0.00  0.00  0.00
  YSB6556YSB1171          1.00   0.01  0.02  0.00  0.97  0.00  0.00  0.00  0.00  0.00
  YS02001907YS02006553    1.00   0.00  0.01  0.00  0.99  0.00  0.00  0.00  0.00  0.00
  YS02006558YS02006561    1.00   0.07  0.00  0.00  0.00  0.93  0.00  0.00  0.58  0.00
  YS02001633YS02163601    1.00   0.00  0.00  0.00  1.00  0.00  0.00  0.00  0.19  0.00
  YS02001644YS02001647    1.00   0.00  0.07  0.00  0.93  0.00  0.00  0.00  0.00  0.00
  YS02001745YS02001748    1.00   0.00  0.00  0.00  0.89  0.01  0.00  0.10  0.04  0.00
  YS02001748YS02001751    1.00   0.00  0.00  0.00  0.97  0.03  0.00  0.00  0.22  0.00
  YS02001751YS02001754    1.00   0.00  0.00  0.00  0.93  0.00  0.00  0.07  0.01  0.00
  YS02001754YS02001757    1.00   0.00  0.00  0.00  1.00  0.00  0.00  0.00  0.25  0.00
  YS02001882YS02001884    1.00   0.05  0.00  0.00  0.94  0.00  0.00  0.00  0.00  0.00
  YS02001884YS02001887    1.00   0.02  0.01  0.00  0.97  0.00  0.00  0.00  0.00  0.00
  YS02001890YS02001895    1.00   0.00  0.06  0.00  0.94  0.00  0.00  0.00  0.00  0.00
  YS02001895YS02001898    1.00   0.06  0.00  0.00  0.93  0.00  0.01  0.00  0.00  0.00
  YS02001898YS02001901    1.00   0.06  0.00  0.00  0.94  0.00  0.00  0.00  0.02  0.00
  YS02001901YS02001904    1.00   0.06  0.00  0.00  0.94  0.00  0.00  0.00  0.00  0.00
  YS02001904YS02001907    1.00   0.00  0.05  0.00  0.94  0.00  0.00  0.00  0.00  0.00
  YS02001887YS02001890    1.00   0.00  0.00  0.00  0.99  0.00  0.01  0.00  0.00  0.00
  YS02001652YS02001649    1.00   0.00  0.00  0.00  1.00  0.00  0.00  0.00  0.25  0.00
  YS02001655YS02001652    1.00   0.00  0.00  0.00  0.93  0.00  0.00  0.07  0.01  0.00
  YS02001658YS02001655    1.00   0.00  0.05  0.00  0.92  0.03  0.00  0.00  0.07  0.00
  YS02001661YS02001658    1.00   0.05  0.00  0.00  0.89  0.06  0.00  0.00  0.05  0.00
  YS02001664YS02001661    1.00   0.03  0.00  0.00  0.84  0.12  0.00  0.00  0.27  0.00
  YSB1154YSB6556          1.00   0.03  0.00  0.00  0.97  0.00  0.00  0.00  0.02  0.00
  YSB1174YSB1171          1.00   0.01  0.01  0.00  0.98  0.00  0.00  0.00  0.00  0.00
  YSB1171HS02004479       1.00   0.01  0.00  0.00  0.99  0.00  0.00  0.00  0.13  0.00
  HS02004881HS02006253    1.00   0.01  0.00  0.00  0.00  0.00  0.00  0.99  0.00  0.00
  YS02001793JiankangQianchi    1.00   0.00  0.00  0.00  1.00  0.00  0.00  0.00  0.57  0.00
  YS02001757CaochengTiaoxuchi    1.00   0.00  0.08  0.00  0.92  0.00  0.00  0.00  0.00  0.00
  WSF200WS02003060        1.00   0.00  0.10  0.00  0.90  0.00  0.00  0.00  0.61  0.00
  1                       1.00   0.00  0.00  0.00  0.00  1.00  0.00  0.00  0.31  0.00
  2                       1.00   1.00  0.00  0.00  0.00  0.00  0.00  0.00  0.00  0.00
  3                       1.00   0.17  0.00  0.00  0.00  0.83  0.00  0.00  0.02  0.00
  4                       1.00   1.00  0.00  0.00  0.00  0.00  0.00  0.00  0.00  0.00
  
  
  *************************
  Conduit Surcharge Summary
  *************************
  
  ----------------------------------------------------------------------------
                                                           Hours        Hours 
                         --------- Hours Full --------   Above Full   Capacity
  Conduit                Both Ends  Upstream  Dnstream   Normal Flow   Limited
  ----------------------------------------------------------------------------
  WS02006229WS02006228        0.37      0.40      0.37      0.80         0.37
  WS02006256WS02006235        3.28      3.30      5.64      3.52         0.01
  WS02006235WS02006234        0.01      0.01      0.01      3.33         0.01
  WS02006231WS02006230        0.01      0.01      0.01      3.61         0.01
  WS02006230WS02006229        0.53      0.59      0.53      4.56         0.53
  WS02006228WS02006109        0.39      0.46      0.39      1.23         0.39
  WS02006111WS02006112        0.01      0.01      0.89      0.01         0.01
  WS02006110WS02006113        0.01      0.01      0.42      0.01         0.01
  WS02006109WS02006110        0.01      0.01      0.46      0.01         0.01
  WS02004404WS02004405        0.01      0.01      0.01      3.40         0.01
  WS02003072WS02003073        0.01      0.01      0.01      2.34         0.01
  HS02004480HS02004478        0.01      0.01      0.01      0.11         0.01
  YS02001759YS02001757        5.49      5.49      5.53      0.01         0.01
  YS02001762YS02001759        5.47      5.47      5.49      0.01         0.01
  YS02001765YS02001762        5.45      5.45      5.47      0.01         0.01
  YS02001770YS02001767        5.43      5.43      5.43      0.01         0.48
  YS02001774YS02001770        5.42      5.42      5.47      0.01         0.01
  YS02001779YS02001774        5.16      5.16      5.47      0.01         0.01
  YS02001649YS02001757        5.47      5.47      5.53      0.01         0.01
  YS02001767YS02001765        5.43      5.43      5.45      0.01         0.01
  YS02001784YS02001785        0.01      0.01      0.01      0.97         0.01
  YS02001791YS02001793        0.01      0.01      0.23      0.01         0.01
  YS02001786YS02001788        0.01      0.01      0.01      0.47         0.01
  YS02001629YS02163301        5.42      5.42      5.43      0.01         0.01
  YS02001619YS02001622        4.75      4.76      4.83      0.01         0.02
  YS02001622YS02001625        4.83      4.83      5.39      0.01         0.01
  YS02001625YS02001629        4.78      4.78      5.39      0.01         0.01
  YS02163301YS02001633        5.43      5.43      5.45      0.01         0.01
  YS02163601YS02164001        5.44      5.44      5.47      0.01         0.01
  YS02164001YS02001641        5.44      5.44      5.46      0.01         0.02
  YS02001641YS02001644        5.46      5.46      5.46      0.01         0.56
  YS02001647YS02001649        5.34      5.34      5.47      0.01         0.01
  YS02006553YS02006556        0.01      0.01      0.02      0.01         0.01
  YS02006556YS02006558        0.01      0.01      0.21      0.01         0.01
  YS02001907YS02006553        0.99      0.99      1.19      0.01         0.01
  YS02006558YS02006561        0.01      0.01      0.01      0.83         0.01
  YS02001633YS02163601        5.44      5.44      5.47      0.01         0.01
  YS02001644YS02001647        5.34      5.34      5.46      0.01         0.01
  YS02001745YS02001748        0.01      0.01      4.52      0.01         0.01
  YS02001748YS02001751        4.61      4.61      4.83      0.01         0.01
  YS02001751YS02001754        4.83      4.83      5.23      0.01         0.01
  YS02001754YS02001757        5.32      5.32      5.53      0.01         0.01
  YS02001904YS02001907        0.01      0.01      0.01      0.01         0.01
  YS02001652YS02001649        5.37      5.37      5.47      0.01         0.01
  YS02001655YS02001652        4.85      4.85      5.29      0.01         0.01
  YS02001658YS02001655        4.54      4.54      4.85      0.01         0.01
  YS02001661YS02001658        0.06      0.06      4.54      0.01         0.01
  YS02001664YS02001661        0.01      0.01      0.35      0.01         0.01
  YS02001793JiankangQianchi        0.01      0.01      7.82      0.01         0.01
  YS02001757CaochengTiaoxuchi        4.59      4.59      5.53      0.01         0.01
  3                           0.01      0.01      0.01      0.01         0.01
  
  
  ***************
  Pumping Summary
  ***************
  
  ---------------------------------------------------------------------------------------------------------
                                                  Min       Avg       Max     Total     Power    % Time Off
                        Percent   Number of      Flow      Flow      Flow    Volume     Usage    Pump Curve
  Pump                 Utilized   Start-Ups       LPS       LPS       LPS  10^6 ltr     Kw-hr    Low   High
  ---------------------------------------------------------------------------------------------------------
  CC-Pump-1                0.00           0      0.00      0.00      0.00     0.000      0.00    0.0    0.0
  CC-Pump-2                0.00           0      0.00      0.00      0.00     0.000      0.00    0.0    0.0
  JK-Pump-1               45.11          10      0.00    300.00    300.00     3.816     30.26    0.0    0.0
  JK-Pump-2               10.34          14      0.00    300.00    300.00     0.875      6.24    0.0    0.0
  XR-Pump-1              100.00           1      0.00     95.00     95.00     2.679     16.73    0.0    0.0
  XR-Pump-2               94.70           1      0.00     95.00     95.00     2.537     15.30    0.0    0.0
  XR-Pump-3               68.15           2      0.00     95.00     95.00     1.826      9.90    0.0    0.0
  XR-Pump-4                0.00           0      0.00      0.00      0.00     0.000      0.00    0.0    0.0
  

  Analysis begun on:  Thu Jan  6 10:32:30 2022
  Analysis ended on:  Thu Jan  6 10:32:32 2022
  Total elapsed time: 00:00:02