
  EPA STORM WATER MANAGEMENT MODEL - VERSION 5.1 (Build 5.3.0.dev0)
  --------------------------------------------------------------

  WARNING 04: minimum elevation drop used for Conduit WS02004404WS02004405
  WARNING 03: negative offset ignored for Link YS02001904YS02001907
  
  *********************************************************
  NOTE: The summary statistics displayed in this report are
  based on results found at every computational time step,  
  not just on results from each reporting time step.
  *********************************************************
  
  ****************
  Analysis Options
  ****************
  Flow Units ............... LPS
  Process Models:
    Rainfall/Runoff ........ YES
    RDII ................... NO
    Snowmelt ............... NO
    Groundwater ............ NO
    Flow Routing ........... YES
    Ponding Allowed ........ NO
    Water Quality .......... NO
  Infiltration Method ...... HORTON
  Flow Routing Method ...... DYNWAVE
  Surcharge Method ......... EXTRAN
  Starting Date ............ 08/28/2015 08:00:00
  Ending Date .............. 08/28/2015 15:50:00
  Antecedent Dry Days ...... 8.0
  Report Time Step ......... 00:01:00
  Wet Time Step ............ 00:01:00
  Dry Time Step ............ 00:01:00
  Routing Time Step ........ 5.00 sec
  Variable Time Step ....... YES
  Maximum Trials ........... 8
  Number of Threads ........ 4
  Head Tolerance ........... 0.001500 m
  
  
  **************************        Volume         Depth
  Runoff Quantity Continuity     hectare-m            mm
  **************************     ---------       -------
  Total Precipitation ......         4.854        10.627
  Evaporation Loss .........         0.000         0.000
  Infiltration Loss ........         1.246         2.727
  Surface Runoff ...........         2.607         5.707
  Final Storage ............         1.002         2.194
  Continuity Error (%) .....        -0.015
  
  
  **************************        Volume        Volume
  Flow Routing Continuity        hectare-m      10^6 ltr
  **************************     ---------     ---------
  Dry Weather Inflow .......         0.616         6.165
  Wet Weather Inflow .......         2.606        26.059
  Groundwater Inflow .......         0.000         0.000
  RDII Inflow ..............         0.000         0.000
  External Inflow ..........         0.102         1.024
  External Outflow .........         1.690        16.897
  Flooding Loss ............         1.083        10.827
  Evaporation Loss .........         0.000         0.000
  Exfiltration Loss ........         0.000         0.000
  Initial Stored Volume ....         0.076         0.761
  Final Stored Volume ......         0.629         6.292
  Continuity Error (%) .....        -0.025
  
  
  *************************
  Highest Continuity Errors
  *************************
  Node HS02004842 (17.68%)
  Node YS02001884 (10.66%)
  Node YSB1171 (3.62%)
  Node HS02004817 (3.28%)
  Node HS02004901 (2.70%)
  
  
  ***************************
  Time-Step Critical Elements
  ***************************
  Link 3 (88.21%)
  Link WS02006280WS02006229 (2.88%)
  Link YS02001791YS02001793 (1.84%)
  Link WS02006238WS02006235 (1.70%)
  Link YS02006556YS02006558 (1.17%)
  
  
  ********************************
  Highest Flow Instability Indexes
  ********************************
  Link YS02163301YS02001633 (37)
  Link WS02006113WS02006111 (37)
  Link YS02001629YS02163301 (37)
  Link YS02163601YS02164001 (37)
  Link YS02001619YS02001622 (35)
  
  
  *************************
  Routing Time Step Summary
  *************************
  Minimum Time Step           :     0.13 sec
  Average Time Step           :     0.99 sec
  Maximum Time Step           :     5.00 sec
  Percent in Steady State     :     0.00
  Average Iterations per Step :     4.36
  Percent Not Converging      :    21.43
  
  
  ***************************
  Subcatchment Runoff Summary
  ***************************
  
  ------------------------------------------------------------------------------------------------------------------------------
                            Total      Total      Total      Total     Imperv       Perv      Total       Total     Peak  Runoff
                           Precip      Runon       Evap      Infil     Runoff     Runoff     Runoff      Runoff   Runoff   Coeff
  Subcatchment                 mm         mm         mm         mm         mm         mm         mm    10^6 ltr      LPS
  ------------------------------------------------------------------------------------------------------------------------------
  sub0                      10.63       0.00       0.00       0.74       8.62       0.00       8.62        0.01     1.33   0.811
  sub1                      10.63       0.00       0.00       1.17       8.20       0.00       8.20        0.05     9.09   0.772
  sub2                      10.63       0.00       0.00       3.93       5.79       0.00       5.79        0.05     8.42   0.544
  sub3                      10.63       0.00       0.00       3.93       5.75       0.00       5.75        0.13    19.27   0.541
  sub4                      10.63       0.00       0.00       1.17       8.05       0.00       8.05        0.17    23.93   0.757
  sub5                      10.63       0.00       0.00       0.74       8.57       0.00       8.57        0.10    16.17   0.806
  sub7                      10.63       0.00       0.00       0.96       8.41       0.00       8.41        0.03     5.13   0.792
  sub8                      10.63       0.00       0.00       0.96       8.41       0.00       8.41        0.05     9.46   0.791
  sub9                      10.63       0.00       0.00       0.96       8.40       0.00       8.40        0.04     7.08   0.791
  sub10                     10.63       0.00       0.00       0.85       8.48       0.00       8.48        0.09    15.87   0.798
  sub11                     10.63       0.00       0.00       0.85       8.50       0.00       8.50        0.10    17.56   0.800
  sub12                     10.63       0.00       0.00       1.38       8.06       0.00       8.06        0.07    13.15   0.758
  sub14                     10.63       0.00       0.00       0.96       8.40       0.00       8.40        0.08    13.93   0.791
  sub15                     10.63       0.00       0.00       3.19       6.46       0.00       6.46        0.11    19.14   0.608
  sub16                     10.63       0.00       0.00       3.51       6.20       0.00       6.20        0.06    12.01   0.584
  sub17                     10.63       0.00       0.00       3.40       6.29       0.00       6.29        0.05     9.91   0.592
  sub22                     10.63       0.00       0.00       4.57       5.27       0.00       5.27        0.33    59.53   0.496
  sub23                     10.63       0.00       0.00       3.93       5.82       0.00       5.82        0.28    50.05   0.548
  sub60                     10.63       0.00       0.00       1.28       6.54       0.00       6.54        1.98   196.13   0.615
  sub61                     10.63       0.00       0.00       1.81       6.69       0.00       6.69        2.06   224.83   0.630
  sub62                     10.63       0.00       0.00       0.85       7.26       0.00       7.26        2.23   236.97   0.684
  sub63                     10.63       0.00       0.00       3.08       5.87       0.00       5.87        1.78   199.96   0.553
  sub64                     10.63       0.00       0.00       1.59       6.27       0.00       6.27        1.91   187.22   0.590
  sub65                     10.63       0.00       0.00       1.38       6.37       0.00       6.37        1.96   190.91   0.599
  sub66                     10.63       0.00       0.00       3.08       5.39       0.00       5.39        1.65   167.73   0.507
  sub67                     10.63       0.00       0.00       0.85       7.71       0.00       7.71        2.38   272.25   0.726
  sub68                     10.63       0.00       0.00       1.49       7.05       0.00       7.05        2.17   241.26   0.664
  sub69                     10.63       0.00       0.00       1.59       7.35       0.00       7.35        1.72   204.41   0.692
  sub70                     10.63       7.50       0.00       6.16       9.71       0.01       9.71        2.22   229.02   0.536
  sub71                     10.63       0.00       0.00       0.85       7.06       0.00       7.06        1.67   170.86   0.664
  sub72                     10.63       0.00       0.00       0.74       5.52       0.00       5.52        1.12    91.59   0.519
  sub73                     10.63       9.45       0.00       6.83      10.48       0.00      10.49        2.46   215.21   0.522
  sub74                     10.63       0.00       0.00       7.97       2.19       0.00       2.19        0.88   108.49   0.206
  
  
  ******************
  Node Depth Summary
  ******************
  
  ---------------------------------------------------------------------------------
                                 Average  Maximum  Maximum  Time of Max    Reported
                                   Depth    Depth      HGL   Occurrence   Max Depth
  Node                 Type       Meters   Meters   Meters  days hr:min      Meters
  ---------------------------------------------------------------------------------
  WS02001211           JUNCTION     0.69     0.71     5.55     0  02:17        0.71
  WS02001212           JUNCTION     0.41     0.43     5.50     0  02:17        0.43
  WS02001213           JUNCTION     0.63     0.68     5.44     0  02:16        0.68
  WS02003069           JUNCTION     0.42     0.51     5.09     0  02:15        0.51
  WS02003072           JUNCTION     0.48     0.57     4.94     0  02:16        0.57
  WS02003073           JUNCTION     0.29     0.35     4.41     0  02:16        0.35
  WS02003060           JUNCTION     0.37     0.45     5.38     0  02:15        0.45
  WS02003066           JUNCTION     0.20     0.27     5.83     0  02:14        0.27
  WS02003059           JUNCTION     0.68     0.74     5.42     0  02:15        0.74
  WS02003067           JUNCTION     0.51     0.66     5.98     0  02:14        0.66
  WS02004401           JUNCTION     0.59     0.79     6.79     0  02:09        0.79
  WS02004402           JUNCTION     0.63     0.82     6.78     0  02:09        0.82
  WS02004403           JUNCTION     0.65     0.84     6.77     0  03:01        0.84
  WS02004404           JUNCTION     0.73     0.94     6.79     0  02:48        0.93
  WS02004406           JUNCTION     0.73     0.90     6.73     0  02:09        0.90
  WS02004409           JUNCTION     0.40     0.59     6.36     0  02:13        0.59
  WS02004410           JUNCTION     0.42     0.61     6.33     0  02:13        0.61
  WS02004411           JUNCTION     0.44     0.62     6.30     0  02:13        0.62
  WS02004412           JUNCTION     0.46     0.64     6.28     0  02:13        0.64
  WS02004413           JUNCTION     0.62     0.80     6.27     0  02:14        0.80
  WS02004405           JUNCTION     0.71     0.90     6.75     0  02:05        0.90
  WS02006109           JUNCTION     0.64     0.85     7.47     0  02:01        0.85
  WS02006110           JUNCTION     0.65     0.83     7.42     0  02:02        0.83
  WS02006111           JUNCTION     0.18     0.26     6.96     0  02:07        0.25
  WS02006112           JUNCTION     0.75     0.96     6.85     0  02:07        0.96
  WS02006113           JUNCTION     0.27     0.40     7.29     0  02:02        0.40
  WS02006115           JUNCTION     0.48     0.68     6.82     0  02:07        0.68
  WS02006116           JUNCTION     0.56     0.76     6.80     0  02:09        0.76
  WS02006230           JUNCTION     0.56     0.81     7.56     0  02:01        0.81
  WS02006231           JUNCTION     0.34     0.47     7.59     0  02:02        0.47
  WS02006232           JUNCTION     0.45     0.58     7.62     0  02:07        0.58
  WS02006234           JUNCTION     0.35     0.47     7.63     0  02:11        0.47
  WS02006235           JUNCTION     0.37     0.49     7.65     0  02:05        0.49
  WS02006238           JUNCTION     0.39     0.51     7.65     0  02:04        0.51
  WS02006240           JUNCTION     0.25     0.36     7.65     0  02:08        0.36
  WS02006242           JUNCTION     0.27     0.39     7.66     0  02:10        0.39
  WS02006243           JUNCTION     0.14     0.24     7.66     0  02:09        0.24
  WS02006245           JUNCTION     0.10     0.20     7.68     0  02:10        0.20
  WS02006247           JUNCTION     0.11     0.21     7.71     0  02:04        0.21
  WS02006248           JUNCTION     0.08     0.16     7.75     0  01:52        0.16
  WS02006249           JUNCTION     0.11     0.21     7.81     0  01:51        0.21
  WS02006239           JUNCTION     0.33     0.44     7.65     0  02:09        0.44
  WS02006251           JUNCTION     0.09     0.18     7.85     0  01:51        0.18
  WS02006252           JUNCTION     0.00     0.00     8.24     0  00:00        0.00
  WS02006253           JUNCTION     0.13     0.25     7.89     0  01:50        0.25
  WS02006256           JUNCTION     1.05     1.77     8.70     0  01:55        1.20
  WS02004138           JUNCTION     0.16     0.17     7.42     0  05:09        0.17
  WS02004407           JUNCTION     0.18     0.27     6.58     0  02:09        0.27
  WS02006228           JUNCTION     0.63     0.86     7.52     0  02:02        0.86
  WS02006229           JUNCTION     0.60     0.85     7.54     0  02:01        0.85
  WS02006280           JUNCTION     0.08     0.16     8.43     0  01:50        0.16
  WS02006284           JUNCTION     0.39     0.50     8.90     0  01:50        0.50
  WS02006287           JUNCTION     0.12     0.23     9.19     0  01:50        0.23
  WSF200               JUNCTION     0.18     0.27     5.50     0  02:12        0.27
  HS02004901           JUNCTION     0.14     0.24    10.06     0  01:47        0.24
  HS02004881           JUNCTION     0.01     0.03     9.06     0  01:50        0.03
  HS02004876           JUNCTION     0.06     0.11     9.14     0  01:47        0.11
  HS02004870           JUNCTION     0.02     0.05     9.33     0  01:50        0.05
  HS02004862           JUNCTION     0.02     0.05     9.44     0  01:51        0.05
  HS02004856           JUNCTION     0.08     0.11     9.54     0  01:51        0.11
  HS02004852           JUNCTION     0.01     0.03     9.54     0  01:52        0.03
  HS02004848           JUNCTION     0.01     0.03     9.63     0  01:51        0.03
  HS02004842           JUNCTION     0.34     0.36     9.63     0  01:51        0.36
  HS02004837           JUNCTION     0.03     0.05     9.63     0  01:51        0.05
  HS02004830           JUNCTION     0.04     0.07     9.54     0  01:51        0.07
  HS02004824           JUNCTION     0.03     0.05     9.45     0  02:16        0.05
  HS02004817           JUNCTION     0.46     0.54     9.39     0  01:51        0.54
  HS02004807           JUNCTION     0.14     0.22     9.39     0  01:51        0.22
  HS02004802           JUNCTION     0.18     0.25     9.38     0  01:51        0.25
  HS02004799           JUNCTION     0.14     0.28     9.49     0  01:48        0.28
  HS02004792           JUNCTION     0.04     0.11     9.63     0  01:47        0.11
  HS02004788           JUNCTION     0.03     0.08     9.98     0  01:48        0.08
  HS02004785           JUNCTION     0.06     0.14    10.04     0  01:48        0.14
  HS02004777           JUNCTION     0.16     0.26    10.06     0  01:47        0.26
  HS02004770           JUNCTION     0.13     0.23    10.06     0  01:47        0.23
  HS02004480           JUNCTION     0.10     0.21     9.46     0  01:48        0.21
  HS02004479           JUNCTION     0.14     0.25     9.46     0  01:48        0.25
  HS02004478           JUNCTION     0.07     0.14     9.37     0  01:49        0.14
  YS02001745           JUNCTION     0.70     0.89     8.40     0  03:07        0.88
  YS02001748           JUNCTION     1.10     2.26     9.33     0  02:29        1.47
  YS02001751           JUNCTION     1.29     2.20     9.08     0  02:13        1.53
  YS02001754           JUNCTION     1.55     2.13     8.74     0  02:17        1.81
  YS02001762           JUNCTION     1.75     2.03     8.43     0  03:08        2.02
  YS02001765           JUNCTION     1.70     1.98     8.43     0  03:10        1.97
  YS02001767           JUNCTION     1.66     1.93     8.42     0  03:10        1.92
  YS02001770           JUNCTION     1.66     1.91     8.41     0  03:10        1.90
  YS02001774           JUNCTION     1.73     1.97     8.40     0  03:08        1.96
  YS02001779           JUNCTION     1.47     1.68     8.37     0  02:13        1.68
  YS02001882           JUNCTION     0.48     0.84     7.56     0  03:02        0.84
  YS02001884           JUNCTION     0.57     0.94     7.56     0  03:03        0.94
  YS02001759           JUNCTION     1.78     2.07     8.44     0  03:00        2.06
  YS02001887           JUNCTION     0.65     1.02     7.56     0  03:03        1.02
  YS02001890           JUNCTION     0.68     1.05     7.55     0  03:03        1.05
  YS02001898           JUNCTION     0.44     0.81     7.55     0  03:03        0.81
  YS02001901           JUNCTION     0.56     0.94     7.54     0  03:03        0.93
  YS02001904           JUNCTION     0.54     0.91     7.54     0  03:03        0.91
  YS02001907           JUNCTION     0.88     1.25     7.54     0  03:03        1.25
  YS02001910           JUNCTION     0.66     1.04     7.55     0  03:03        1.04
  YS02001915           JUNCTION     0.46     0.83     7.55     0  03:03        0.83
  YS02001918           JUNCTION     0.18     0.48     7.55     0  03:03        0.48
  YS02001619           JUNCTION     1.25     1.61     8.54     0  02:22        1.46
  YS02001629           JUNCTION     1.61     1.85     8.40     0  02:26        1.83
  YS02001641           JUNCTION     1.71     1.98     8.42     0  02:32        1.93
  YS02001644           JUNCTION     1.71     1.92     8.35     0  02:32        1.92
  YS02001652           JUNCTION     1.56     2.16     8.76     0  02:45        1.91
  YS02001655           JUNCTION     1.32     2.20     9.05     0  02:15        1.72
  YS02001920           JUNCTION     0.28     0.55     7.55     0  03:03        0.54
  YS02001923           JUNCTION     0.11     0.29     7.55     0  03:03        0.28
  YS02001926           JUNCTION     0.21     0.26     7.71     0  03:01        0.26
  YS02001929           JUNCTION     0.11     0.14     7.84     0  03:01        0.14
  YS02001658           JUNCTION     1.04     2.30     9.44     0  02:23        1.50
  YS02001661           JUNCTION     0.81     2.46     9.86     0  02:45        1.81
  YS02001664           JUNCTION     0.36     0.57     8.49     0  02:46        0.56
  YS02001622           JUNCTION     1.27     1.62     8.52     0  02:26        1.49
  YS02001633           JUNCTION     1.70     1.99     8.45     0  02:32        1.93
  YS02001649           JUNCTION     1.76     2.05     8.44     0  02:25        2.05
  YS02001757           JUNCTION     1.88     2.18     8.44     0  03:02        2.17
  YS02001895           JUNCTION     0.44     0.80     7.55     0  03:03        0.80
  YS02001625           JUNCTION     1.56     1.78     8.38     0  02:26        1.78
  YS02163301           JUNCTION     1.64     1.92     8.44     0  02:31        1.87
  YS02163601           JUNCTION     1.75     2.06     8.45     0  02:32        1.98
  YS02164001           JUNCTION     1.69     1.99     8.45     0  02:32        1.91
  YS02001647           JUNCTION     1.54     1.80     8.41     0  03:44        1.79
  YSB1154              JUNCTION     0.28     0.40     9.46     0  01:48        0.40
  YSB6556              JUNCTION     0.17     0.29     9.46     0  01:48        0.29
  YSB1174              JUNCTION     0.23     0.35     9.46     0  01:48        0.35
  YSB1171              JUNCTION     0.43     0.55     9.46     0  01:48        0.55
  YS02006553           JUNCTION     0.88     1.25     7.53     0  03:03        1.25
  YS02006561           JUNCTION     0.26     0.56     7.22     0  03:03        0.56
  YS02006556           JUNCTION     0.85     1.21     7.52     0  03:03        1.20
  YS02006558           JUNCTION     0.89     1.24     7.51     0  03:03        1.24
  YS02001783           JUNCTION     0.50     1.08     7.22     0  03:03        1.07
  YS02001784           JUNCTION     0.52     1.07     7.14     0  03:03        1.06
  YS02001786           JUNCTION     0.46     1.04     7.07     0  02:35        0.98
  YS02001788           JUNCTION     0.39     0.98     6.96     0  02:36        0.92
  YS02001790           JUNCTION     0.50     1.21     6.85     0  02:36        1.16
  YS02001791           JUNCTION     0.45     1.24     6.71     0  02:36        1.22
  YS02001793           JUNCTION     0.77     2.96     7.79     0  01:52        1.79
  WS02004139           JUNCTION     0.63     0.65     5.56     0  02:18        0.65
  WSC                  OUTFALL      0.29     0.35     1.02     0  02:17        0.35
  3                    OUTFALL      0.13     0.22     6.22     0  01:55        0.21
  4                    OUTFALL      0.00     0.00     7.00     0  00:00        0.00
  5                    OUTFALL      0.00     0.00     5.00     0  00:00        0.00
  JK-storage           STORAGE      4.68     5.80     6.60     0  02:36        5.80
  CC-storage           STORAGE      1.10     1.40     8.40     0  03:03        1.40
  XR-storage           STORAGE      7.55     7.72     5.72     0  02:01        7.72
  
  
  *******************
  Node Inflow Summary
  *******************
  
  -------------------------------------------------------------------------------------------------
                                  Maximum  Maximum                  Lateral       Total        Flow
                                  Lateral    Total  Time of Max      Inflow      Inflow     Balance
                                   Inflow   Inflow   Occurrence      Volume      Volume       Error
  Node                 Type           LPS      LPS  days hr:min    10^6 ltr    10^6 ltr     Percent
  -------------------------------------------------------------------------------------------------
  WS02001211           JUNCTION      7.35   293.92     0  02:53       0.207        7.51       0.429
  WS02001212           JUNCTION      0.00   294.26     0  02:53           0        7.48       0.212
  WS02001213           JUNCTION      0.00   294.82     0  02:52           0        7.46       0.247
  WS02003069           JUNCTION      0.32   743.18     0  02:15     0.00902        12.3       0.146
  WS02003072           JUNCTION      0.00   743.14     0  02:15           0        12.3       0.197
  WS02003073           JUNCTION      1.82   744.93     0  02:16      0.0514        12.3       0.216
  WS02003060           JUNCTION     16.53   742.91     0  02:14       0.466        12.3       0.138
  WS02003066           JUNCTION      0.00   434.04     0  02:14           0         4.4       0.048
  WS02003059           JUNCTION      0.00   296.98     0  02:51           0        7.45       0.442
  WS02003067           JUNCTION      0.00   434.03     0  02:14           0        4.41       0.121
  WS02004401           JUNCTION      0.00   435.31     0  02:03           0        4.55       0.300
  WS02004402           JUNCTION      0.00   435.75     0  02:03           0        4.53       0.296
  WS02004403           JUNCTION      0.00   441.37     0  03:01           0        4.52       0.280
  WS02004404           JUNCTION      0.16   454.65     0  03:01     0.00457        4.51       0.296
  WS02004406           JUNCTION      0.00   437.01     0  02:08           0        4.49       0.546
  WS02004409           JUNCTION      0.00   434.40     0  02:09           0        4.46       0.140
  WS02004410           JUNCTION      0.00   434.27     0  02:11           0        4.45       0.180
  WS02004411           JUNCTION      0.00   434.21     0  02:11           0        4.45       0.201
  WS02004412           JUNCTION      0.00   434.10     0  02:13           0        4.44       0.241
  WS02004413           JUNCTION      0.00   434.10     0  02:13           0        4.43       0.403
  WS02004405           JUNCTION      0.04   533.75     0  03:00     0.00107         4.5       0.250
  WS02006109           JUNCTION      1.23   428.33     0  02:01      0.0347        4.56       0.313
  WS02006110           JUNCTION      0.00   428.28     0  02:02           0        4.55       0.282
  WS02006111           JUNCTION      0.00   438.89     0  02:02           0        4.53       0.040
  WS02006112           JUNCTION      9.91   436.97     0  02:02       0.054        4.59       0.395
  WS02006113           JUNCTION      0.00   428.31     0  02:02           0        4.54       0.088
  WS02006115           JUNCTION      0.00   435.69     0  02:02           0        4.57       0.269
  WS02006116           JUNCTION      0.00   435.48     0  02:04           0        4.56       0.200
  WS02006230           JUNCTION     10.28   199.01     0  02:27        0.29        2.92       0.274
  WS02006231           JUNCTION      0.00   187.74     0  02:27           0        2.63       0.026
  WS02006232           JUNCTION      0.00   187.06     0  02:11           0        2.63       0.219
  WS02006234           JUNCTION      0.00   187.71     0  02:11           0        2.63       0.003
  WS02006235           JUNCTION      0.00   201.77     0  01:44           0        2.79       0.121
  WS02006238           JUNCTION      0.00   134.61     0  01:44           0       0.567       0.171
  WS02006240           JUNCTION      0.00    58.27     0  01:45           0       0.433       0.429
  WS02006242           JUNCTION      0.00    51.82     0  02:04           0       0.368       0.600
  WS02006243           JUNCTION      0.00    50.64     0  01:51           0       0.323      -0.035
  WS02006245           JUNCTION      0.00    51.03     0  01:52           0       0.312       0.326
  WS02006247           JUNCTION      0.00    51.10     0  01:52           0       0.311       0.032
  WS02006248           JUNCTION      0.00    51.14     0  01:51           0       0.311      -0.003
  WS02006249           JUNCTION      0.00    51.16     0  01:51           0       0.312       0.137
  WS02006239           JUNCTION      0.00    78.86     0  01:44           0       0.502       0.128
  WS02006251           JUNCTION      0.08    51.21     0  01:50     0.00217       0.312       0.008
  WS02006252           JUNCTION      0.00     0.00     0  00:00           0           0       0.000 ltr
  WS02006253           JUNCTION      1.33    51.15     0  01:49     0.00698        0.31       0.067
  WS02006256           JUNCTION      0.00   600.00     0  01:55           0        6.99       0.120
  WS02004138           JUNCTION      0.00   285.00     0  01:32           0        7.33       0.044
  WS02004407           JUNCTION      0.00   434.55     0  02:09           0        4.46       0.070
  WS02006228           JUNCTION      0.00   427.10     0  02:01           0        4.54       0.200
  WS02006229           JUNCTION      0.00   426.70     0  02:01           0        4.55       0.240
  WS02006280           JUNCTION      0.00   250.77     0  01:50           0        1.65       0.004
  WS02006284           JUNCTION      0.10   250.79     0  01:50      0.0027        1.65       0.062
  WS02006287           JUNCTION      0.00   250.70     0  01:50           0        1.65       0.044
  WSF200               JUNCTION      0.00   434.03     0  02:14           0         4.4       0.036
  HS02004901           JUNCTION     12.01    12.01     0  01:45      0.0649      0.0651       2.777
  HS02004881           JUNCTION      5.13    49.92     0  01:49      0.0283       0.303       0.021
  HS02004876           JUNCTION      9.09    44.88     0  01:50      0.0545       0.275       0.197
  HS02004870           JUNCTION      9.46    35.90     0  01:50      0.0537       0.221       0.049
  HS02004862           JUNCTION      8.62    26.77     0  01:51      0.0595       0.167       0.103
  HS02004856           JUNCTION      7.08    18.19     0  01:50      0.0404       0.109       1.333
  HS02004852           JUNCTION      0.00    11.37     0  01:51           0      0.0688       0.079
  HS02004848           JUNCTION     19.27    19.27     0  02:15       0.129       0.129       0.035
  HS02004842           JUNCTION      0.00     7.96     0  02:16           0      0.0736      21.477
  HS02004837           JUNCTION     22.22    28.76     0  01:50       0.273       0.333       0.236
  HS02004830           JUNCTION      0.15    28.90     0  01:51     0.00423       0.324       0.383
  HS02004824           JUNCTION     23.98    52.78     0  02:16       0.169       0.492       0.110
  HS02004817           JUNCTION      0.60    53.38     0  02:16      0.0169       0.508       3.393
  HS02004807           JUNCTION     17.56    68.44     0  02:16      0.0987        0.59       0.738
  HS02004802           JUNCTION      0.00    68.45     0  02:16           0       0.587       0.678
  HS02004799           JUNCTION     13.93   155.61     0  01:47      0.0799       0.915       0.288
  HS02004792           JUNCTION     59.81   141.74     0  01:47       0.341       0.835       0.048
  HS02004788           JUNCTION     20.81    82.39     0  01:48       0.158       0.496       0.077
  HS02004785           JUNCTION      0.15    61.69     0  01:47     0.00423       0.339       0.145
  HS02004777           JUNCTION      0.03    61.68     0  01:46    0.000846        0.34       1.552
  HS02004770           JUNCTION     50.05    61.90     0  01:46       0.278       0.341       0.915
  HS02004480           JUNCTION      0.00   184.53     0  01:48           0        1.08       0.105
  HS02004479           JUNCTION      0.00    29.01     0  01:50           0       0.176       0.418
  HS02004478           JUNCTION      0.00   250.67     0  01:49           0        1.65       0.021
  YS02001745           JUNCTION    196.14   361.07     0  02:29        1.98        1.99       0.575
  YS02001748           JUNCTION      0.04   521.58     0  02:29     0.00127        1.99       1.159
  YS02001751           JUNCTION      0.01   474.62     0  02:13     0.00031        1.96       1.191
  YS02001754           JUNCTION      0.26   216.97     0  02:23     0.00733        1.93       1.248
  YS02001762           JUNCTION      0.00   225.63     0  02:43           0        1.56       1.356
  YS02001765           JUNCTION      0.00   225.65     0  02:43           0        1.56       1.581
  YS02001767           JUNCTION      0.54   225.54     0  02:43      0.0151        1.58       2.300
  YS02001770           JUNCTION    237.12   374.70     0  03:08        2.24        2.49       1.269
  YS02001774           JUNCTION      0.00   375.15     0  03:08           0        1.15       2.224
  YS02001779           JUNCTION      0.01   375.33     0  03:08    0.000141        1.12       1.364
  YS02001882           JUNCTION      0.00    12.65     0  02:15           0      0.0197      11.752
  YS02001884           JUNCTION      0.00    16.26     0  02:16           0      0.0535      11.932
  YS02001759           JUNCTION    224.87   440.15     0  02:44        2.06        3.34       0.681
  YS02001887           JUNCTION    272.70   272.70     0  02:58        2.39        2.42       0.334
  YS02001890           JUNCTION      0.00   268.17     0  03:00           0        2.38       0.370
  YS02001898           JUNCTION      0.00   264.14     0  02:37           0        2.36       0.116
  YS02001901           JUNCTION      0.00   266.49     0  02:36           0        2.36       0.276
  YS02001904           JUNCTION      0.00   267.60     0  02:36           0        2.36       0.252
  YS02001907           JUNCTION      0.00   525.77     0  03:07           0        5.21       0.447
  YS02001910           JUNCTION      0.00   267.40     0  03:08           0        2.86       0.391
  YS02001915           JUNCTION    170.88   264.00     0  03:05        1.67        2.86       0.195
  YS02001918           JUNCTION      0.00   107.43     0  03:16           0         1.2       0.142
  YS02001619           JUNCTION    167.73   167.73     0  03:01        1.65        1.65       0.733
  YS02001629           JUNCTION      0.00   212.61     0  02:16           0        1.57       1.809
  YS02001641           JUNCTION      0.00   352.11     0  03:00           0        3.43       0.612
  YS02001644           JUNCTION    187.26  1044.88     0  03:04        1.91        9.25       0.279
  YS02001652           JUNCTION      0.00   272.57     0  02:23           0        1.72       1.344
  YS02001655           JUNCTION      0.15   381.93     0  02:17     0.00434        1.75       1.380
  YS02001920           JUNCTION      2.87   105.38     0  03:04      0.0809         1.2       0.228
  YS02001923           JUNCTION      0.04    91.49     0  03:01     0.00106        1.12       0.042
  YS02001926           JUNCTION      0.05    91.60     0  03:01     0.00147        1.12       0.282
  YS02001929           JUNCTION     91.59    91.59     0  03:01        1.12        1.12       0.041
  YS02001658           JUNCTION      0.00   609.74     0  02:24           0         1.8       1.273
  YS02001661           JUNCTION      0.00   557.34     0  02:45           0         2.2       0.246
  YS02001664           JUNCTION    199.96   344.86     0  02:44        1.78        2.18       0.293
  YS02001622           JUNCTION      0.00   173.47     0  02:15           0        1.64       1.943
  YS02001633           JUNCTION    191.11   351.73     0  03:00        1.96        3.49       0.924
  YS02001649           JUNCTION      0.00   686.11     0  02:24           0        5.87       0.632
  YS02001757           JUNCTION      0.00  1270.24     0  02:38           0        6.96       1.335
  YS02001895           JUNCTION      0.00   266.93     0  03:00           0        2.37       0.201
  YS02001625           JUNCTION      0.00   212.60     0  02:16           0        1.61       2.481
  YS02163301           JUNCTION      0.00   182.71     0  02:24           0        1.55       1.570
  YS02163601           JUNCTION      0.11   351.90     0  03:00      0.0031        3.45       0.873
  YS02164001           JUNCTION      0.00   352.06     0  03:00           0        3.43       0.589
  YS02001647           JUNCTION      0.00   532.38     0  03:07           0        5.24       0.529
  YSB1154              JUNCTION     16.17    16.17     0  01:48       0.097      0.0978       1.500
  YSB6556              JUNCTION      0.00    16.24     0  01:49           0      0.0986       1.284
  YSB1174              JUNCTION     13.15    13.15     0  01:45      0.0704      0.0709       1.844
  YSB1171              JUNCTION      0.00    29.30     0  01:48           0       0.175       3.755
  YS02006553           JUNCTION      0.00   525.81     0  03:07           0         5.2       0.289
  YS02006561           JUNCTION      0.00   752.49     0  03:03           0        7.33       0.009
  YS02006556           JUNCTION      0.00   525.83     0  03:07           0         5.2       0.211
  YS02006558           JUNCTION    242.14   752.37     0  03:03        2.19        7.37       0.069
  YS02001783           JUNCTION      0.00   752.03     0  03:03           0        7.33       0.029
  YS02001784           JUNCTION      1.06   753.19     0  03:03      0.0299        7.36       0.045
  YS02001786           JUNCTION      0.06   753.12     0  03:03     0.00159        7.36       0.042
  YS02001788           JUNCTION      0.07   753.14     0  03:03       0.002        7.36       0.026
  YS02001790           JUNCTION      0.15   753.36     0  03:03     0.00437        7.36       0.031
  YS02001791           JUNCTION      0.00   753.39     0  03:03           0        7.36       0.014
  YS02001793           JUNCTION      0.00  1040.93     0  01:52           0        7.47      -0.003
  WS02004139           JUNCTION      0.32   285.32     0  01:35     0.00905        7.33       0.416
  WSC                  OUTFALL       0.00   744.90     0  02:17           0        12.3       0.000
  3                    OUTFALL       0.00   568.97     0  01:55           0        4.64       0.000
  4                    OUTFALL       0.00     0.00     0  00:00           0           0       0.000 ltr
  5                    OUTFALL       0.00     0.00     0  00:00           0           0       0.000 ltr
  JK-storage           STORAGE       0.00  1239.46     0  01:52           0        7.62       0.071
  CC-storage           STORAGE       0.00  1270.61     0  02:38           0        3.97       1.661
  XR-storage           STORAGE     519.52   519.52     0  03:01        8.98        9.58      -0.000
  
  
  **********************
  Node Surcharge Summary
  **********************
  
  Surcharging occurs when water rises above the top of the highest conduit.
  ---------------------------------------------------------------------
                                               Max. Height   Min. Depth
                                   Hours       Above Crown    Below Rim
  Node                 Type      Surcharged         Meters       Meters
  ---------------------------------------------------------------------
  WS02006109           JUNCTION        0.71          0.031        1.789
  WS02006256           JUNCTION        0.01          0.466        0.584
  WS02006228           JUNCTION        0.67          0.035        2.165
  YS02001748           JUNCTION        5.25          1.177        0.013
  YS02001751           JUNCTION        5.50          1.200        0.000
  YS02001754           JUNCTION        5.75          1.082        0.068
  YS02001762           JUNCTION        5.94          1.033        0.117
  YS02001765           JUNCTION        5.92          0.978        0.122
  YS02001767           JUNCTION        5.90          0.933        0.097
  YS02001770           JUNCTION        5.88          0.884        0.036
  YS02001774           JUNCTION        5.93          0.974        0.076
  YS02001779           JUNCTION        5.71          0.680        0.000
  YS02001759           JUNCTION        5.97          1.071        0.139
  YS02001907           JUNCTION        1.24          0.242        0.708
  YS02001910           JUNCTION        0.19          0.041        1.059
  YS02001619           JUNCTION        5.47          0.610        0.000
  YS02001629           JUNCTION        5.49          0.470        0.000
  YS02001641           JUNCTION        5.93          0.981        0.119
  YS02001644           JUNCTION        5.93          0.920        0.000
  YS02001652           JUNCTION        5.80          1.130        0.000
  YS02001655           JUNCTION        5.51          1.200        0.000
  YS02001658           JUNCTION        5.27          1.300        0.000
  YS02001661           JUNCTION        0.20          1.390        0.000
  YS02001622           JUNCTION        5.54          0.620        0.000
  YS02001633           JUNCTION        5.91          0.974        0.086
  YS02001649           JUNCTION        5.95          1.050        0.000
  YS02001757           JUNCTION        6.03          1.178        0.032
  YS02001625           JUNCTION        5.84          0.780        0.000
  YS02163301           JUNCTION        5.89          0.919        0.111
  YS02163601           JUNCTION        5.95          1.056        0.024
  YS02164001           JUNCTION        5.92          0.988        0.112
  YS02001647           JUNCTION        5.82          0.800        0.100
  YS02006553           JUNCTION        1.31          0.247        0.943
  YS02006556           JUNCTION        0.65          0.167        1.183
  YS02006558           JUNCTION        0.57          0.143        1.257
  YS02001783           JUNCTION        0.82          0.278        1.322
  YS02001784           JUNCTION        0.84          0.273        1.217
  YS02001786           JUNCTION        0.81          0.237        1.193
  YS02001788           JUNCTION        0.80          0.182        1.298
  YS02001790           JUNCTION        1.06          0.406        0.751
  YS02001791           JUNCTION        1.13          0.445        1.475
  YS02001793           JUNCTION        1.36          1.956        0.644
  
  
  *********************
  Node Flooding Summary
  *********************
  
  Flooding refers to all water that overflows a node, whether it ponds or not.
  --------------------------------------------------------------------------
                                                             Total   Maximum
                                 Maximum   Time of Max       Flood    Ponded
                        Hours       Rate    Occurrence      Volume     Depth
  Node                 Flooded       LPS   days hr:min    10^6 ltr    Meters
  --------------------------------------------------------------------------
  YS02001751              0.01    175.30      0  02:17       0.000     0.000
  YS02001779              2.45    375.27      0  03:08       1.101     0.000
  YS02001619              0.01     21.12      0  02:26       0.000     0.000
  YS02001629              0.01     38.24      0  02:29       0.000     0.000
  YS02001644              5.18   1044.69      0  03:04       7.912     0.000
  YS02001652              0.01     14.24      0  02:45       0.000     0.000
  YS02001655              0.01    174.13      0  02:16       0.001     0.000
  YS02001658              0.01    252.95      0  02:25       0.001     0.000
  YS02001661              0.01    147.08      0  02:45       0.000     0.000
  YS02001622              0.01      8.14      0  02:26       0.000     0.000
  YS02001649              0.07     40.63      0  02:45       0.003     0.000
  YS02001625              0.29     24.24      0  02:31       0.003     0.000
  JK-storage              0.79    153.50      0  03:03       0.332     0.000
  XR-storage              3.76    234.52      0  03:01       1.474     0.000
  
  
  **********************
  Storage Volume Summary
  **********************
  
  --------------------------------------------------------------------------------------------------
                         Average     Avg  Evap Exfil       Maximum     Max    Time of Max    Maximum
                          Volume    Pcnt  Pcnt  Pcnt        Volume    Pcnt     Occurrence    Outflow
  Storage Unit           1000 m3    Full  Loss  Loss       1000 m3    Full    days hr:min        LPS
  --------------------------------------------------------------------------------------------------
  JK-storage               0.235      81     0     0         0.291     100       0  02:36     965.53
  CC-storage               3.075      20     0     0         3.901      25       0  03:03     121.83
  XR-storage               0.905      98     0     0         0.926     100       0  02:01     285.00
  
  
  ***********************
  Outfall Loading Summary
  ***********************
  
  -----------------------------------------------------------
                         Flow       Avg       Max       Total
                         Freq      Flow      Flow      Volume
  Outfall Node           Pcnt       LPS       LPS    10^6 ltr
  -----------------------------------------------------------
  WSC                  100.00    533.29    744.90      12.253
  3                     89.33    306.16    568.97       4.644
  4                      0.00      0.00      0.00       0.000
  5                      0.00      0.00      0.00       0.000
  -----------------------------------------------------------
  System                47.33    839.45   1302.66      16.897
  
  
  ********************
  Link Flow Summary
  ********************
  
  -----------------------------------------------------------------------------
                                 Maximum  Time of Max   Maximum    Max/    Max/
                                  |Flow|   Occurrence   |Veloc|    Full    Full
  Link                 Type          LPS  days hr:min     m/sec    Flow   Depth
  -----------------------------------------------------------------------------
  WS02003066WSF200     CONDUIT    434.03     0  02:14      2.62    0.07    0.20
  WS02006287WS02006284 CONDUIT    250.69     0  01:50      1.73    0.12    0.24
  WS02006284WS02006280 CONDUIT    250.77     0  01:50      1.97    0.11    0.22
  WS02006280WS02006229 CONDUIT    250.77     0  01:50      3.17    0.05    0.16
  WS02006229WS02006228 CONDUIT    427.10     0  02:01      0.85    1.41    1.00
  WS02006256WS02006235 CONDUIT    166.35     0  06:52      2.52    1.76    1.00
  WS02006253WS02006251 CONDUIT     51.13     0  01:50      0.53    0.15    0.30
  WS02006252WS02006251 CONDUIT      0.00     0  00:00      0.00    0.00    0.00
  WS02006251WS02006249 CONDUIT     51.16     0  01:51      0.58    0.15    0.28
  WS02006249WS02006248 CONDUIT     51.14     0  01:51      0.69    0.28    0.25
  WS02006248WS02006247 CONDUIT     51.10     0  01:52      0.66    0.11    0.26
  WS02006247WS02006245 CONDUIT     51.03     0  01:52      0.61    0.40    0.29
  WS02006245WS02006243 CONDUIT     50.64     0  01:51      0.74    0.15    0.31
  WS02006243WS02006242 CONDUIT     51.82     0  02:04      0.59    0.11    0.43
  WS02006242WS02006240 CONDUIT     53.07     0  02:11      0.50    0.21    0.53
  WS02006240WS02006239 CONDUIT     54.04     0  02:10      0.68    0.17    0.55
  WS02006239WS02006238 CONDUIT     77.78     0  05:04      0.66    0.25    0.66
  WS02006238WS02006235 CONDUIT    118.37     0  05:52      0.98    0.26    0.71
  WS02006235WS02006234 CONDUIT    187.71     0  02:11      0.91    1.98    0.66
  WS02006234WS02006232 CONDUIT    187.06     0  02:11      0.75    0.38    0.75
  WS02006232WS02006231 CONDUIT    187.74     0  02:27      0.69    0.39    0.74
  WS02006231WS02006230 CONDUIT    188.73     0  02:27      1.04    2.86    0.64
  WS02006230WS02006229 CONDUIT    200.12     0  02:27      0.53    4.45    1.00
  WS02006228WS02006109 CONDUIT    427.10     0  02:01      0.85    1.87    1.00
  WS02006116WS02004401 CONDUIT    435.31     0  02:03      0.69    0.60    0.77
  WS02006115WS02006116 CONDUIT    435.48     0  02:04      0.94    0.56    0.69
  WS02006113WS02006111 CONDUIT    438.89     0  02:02      2.27    0.53    0.41
  WS02006112WS02006115 CONDUIT    435.69     0  02:02      0.65    0.26    0.82
  WS02006111WS02006112 CONDUIT    428.54     0  02:02      1.23    0.20    0.65
  WS02006110WS02006113 CONDUIT    428.31     0  02:02      1.06    0.39    0.75
  WS02006109WS02006110 CONDUIT    428.28     0  02:02      0.87    0.82    0.95
  WS02004411WS02004412 CONDUIT    434.10     0  02:13      0.95    0.62    0.63
  WS02004401WS02004402 CONDUIT    435.75     0  02:03      0.66    0.52    0.80
  WS02004413WS02003067 CONDUIT    434.03     0  02:14      0.99    0.19    0.55
  WS02004412WS02004413 CONDUIT    434.10     0  02:13      0.91    0.29    0.72
  WS02004410WS02004411 CONDUIT    434.21     0  02:11      0.85    0.59    0.62
  WS02004409WS02004410 CONDUIT    434.27     0  02:11      0.91    0.56    0.60
  WS02004407WS02004409 CONDUIT    434.40     0  02:09      1.41    0.15    0.43
  WS02004406WS02004407 CONDUIT    434.55     0  02:09      0.92    0.19    0.58
  WS02004405WS02004406 CONDUIT    437.01     0  02:08      0.59    0.86    0.90
  WS02004404WS02004405 CONDUIT    533.71     0  03:00      0.75    5.23    0.90
  WS02004403WS02004404 CONDUIT    454.49     0  03:01      0.64    0.33    0.88
  WS02004402WS02004403 CONDUIT    441.37     0  03:01      0.66    0.63    0.83
  WS02004139WS02001211 CONDUIT    286.58     0  02:53      0.54    0.36    0.53
  WS02004138WS02004139 CONDUIT    285.00     0  01:35      2.39    0.06    0.38
  WS02003067WS02003066 CONDUIT    434.04     0  02:14      1.07    0.14    0.39
  WS02001213WS02003059 CONDUIT    296.98     0  02:51      0.59    0.49    0.70
  WS02001212WS02001213 CONDUIT    294.82     0  02:52      1.19    0.45    0.40
  WS02001211WS02001212 CONDUIT    294.26     0  02:53      0.67    0.22    0.57
  WS02003072WS02003073 CONDUIT    743.11     0  02:16      1.59    1.61    0.43
  WS02003069WS02003072 CONDUIT    743.14     0  02:15      1.50    0.36    0.45
  WS02003060WS02003069 CONDUIT    742.86     0  02:15      1.76    0.29    0.40
  WS02003059WS02003060 CONDUIT    298.81     0  02:51      0.82    0.20    0.59
  HS02004901HS02004770 CONDUIT     11.86     0  01:47      0.05    0.04    0.34
  HS02004876HS02004881 CONDUIT     44.96     0  01:50      0.68    0.48    0.09
  HS02004870HS02004876 CONDUIT     35.89     0  01:50      0.47    0.02    0.11
  HS02004842HS02004848 CONDUIT      7.96     0  02:16      0.04    0.00    0.28
  HS02004837HS02004842 CONDUIT      8.06     0  02:20      0.42    0.00    0.30
  HS02004830HS02004837 CONDUIT     28.75     0  01:51      0.48    0.03    0.09
  HS02004824HS02004830 CONDUIT     28.90     0  01:52      0.51    0.04    0.08
  HS02004817HS02004824 CONDUIT     52.78     0  02:16      0.18    0.02    0.42
  HS02004770HS02004777 CONDUIT     61.65     0  01:46      0.25    0.11    0.35
  HS02004799HS02004480 CONDUIT    155.54     0  01:47      0.65    0.20    0.34
  HS02004792HS02004799 CONDUIT    141.71     0  01:47      0.74    0.09    0.27
  HS02004788HS02004792 CONDUIT     82.36     0  01:48      0.88    0.05    0.13
  HS02004785HS02004788 CONDUIT     61.65     0  01:48      0.55    0.46    0.16
  HS02004777HS02004785 CONDUIT     61.54     0  01:47      0.30    0.08    0.29
  HS02004480HS02004478 CONDUIT    184.33     0  01:49      1.04    0.78    0.25
  HS02004479HS02004480 CONDUIT     29.23     0  01:51      0.28    0.03    0.33
  HS02004862HS02004870 CONDUIT     26.75     0  01:51      0.52    0.03    0.07
  HS02004848HS02004852 CONDUIT     11.37     0  01:51      0.35    0.01    0.05
  HS02004856HS02004862 CONDUIT     18.17     0  01:51      0.38    0.02    0.07
  HS02004852HS02004856 CONDUIT     11.35     0  01:52      0.16    0.01    0.10
  HS02004802HS02004478 CONDUIT     68.53     0  02:17      0.36    0.06    0.28
  HS02004478WS02006287 CONDUIT    250.70     0  01:50      1.43    0.07    0.19
  HS02004817HS02004807 CONDUIT     53.46     0  02:17      0.14    0.03    0.54
  HS02004807HS02004802 CONDUIT     68.45     0  02:16      0.30    0.13    0.33
  YS02001759YS02001757 CONDUIT    440.44     0  02:44      0.56    0.31    1.00
  YS02001762YS02001759 CONDUIT    225.47     0  02:43      0.29    0.26    1.00
  YS02001765YS02001762 CONDUIT    225.63     0  02:43      0.29    0.21    1.00
  YS02001770YS02001767 CONDUIT    225.00     0  02:43      0.38    0.89    1.00
  YS02001774YS02001770 CONDUIT    375.15     0  03:08      0.48    0.24    1.00
  YS02001779YS02001774 CONDUIT    375.33     0  03:08      0.48    0.19    1.00
  YS02001649YS02001757 CONDUIT    685.99     0  02:24      0.87    0.42    1.00
  YS02001767YS02001765 CONDUIT    225.65     0  02:43      0.35    0.28    1.00
  YS02006561YS02001783 CONDUIT    752.03     0  03:03      2.10    0.39    0.85
  YS02001783YS02001784 CONDUIT    752.13     0  03:03      1.60    1.04    1.00
  YS02001784YS02001785 CONDUIT    753.06     0  03:03      1.72    1.75    1.00
  YS02001788YS02001790 CONDUIT    753.21     0  03:03      2.25    0.56    1.00
  YS02001790YS02001791 CONDUIT    753.39     0  03:03      2.70    0.82    1.00
  YS02001791YS02001793 CONDUIT    753.48     0  03:03      4.41    0.32    1.00
  YS02001910YS02001907 CONDUIT    270.67     0  03:18      0.49    0.15    1.00
  YS02001786YS02001788 CONDUIT    753.07     0  03:03      2.16    1.45    1.00
  YS02001915YS02001910 CONDUIT    267.40     0  03:08      0.56    0.13    0.91
  YS02001918YS02001915 CONDUIT    110.85     0  03:16      0.44    0.06    0.65
  YS02001923YS02001920 CONDUIT    102.51     0  03:04      0.64    0.05    0.41
  YS02001926YS02001923 CONDUIT     91.45     0  03:01      0.74    0.13    0.21
  YS02001929YS02001926 CONDUIT     91.54     0  03:01      0.81    0.04    0.20
  YS02001920YS02001918 CONDUIT    107.43     0  03:16      0.63    0.10    0.51
  YS02001629YS02163301 CONDUIT    182.71     0  02:24      0.23    0.23    1.00
  YS02001619YS02001622 CONDUIT    173.47     0  02:15      0.65    0.26    1.00
  YS02001622YS02001625 CONDUIT    212.60     0  02:16      0.32    0.11    1.00
  YS02001625YS02001629 CONDUIT    212.61     0  02:16      0.27    0.10    1.00
  YS02163301YS02001633 CONDUIT    182.84     0  02:24      0.23    0.17    1.00
  YS02163601YS02164001 CONDUIT    352.06     0  03:00      0.45    0.31    1.00
  YS02164001YS02001641 CONDUIT    352.11     0  03:00      0.45    0.48    1.00
  YS02001641YS02001644 CONDUIT    351.92     0  02:58      0.45    1.14    1.00
  YS02001647YS02001649 CONDUIT    532.38     0  03:07      0.68    0.28    1.00
  YS02006553YS02006556 CONDUIT    525.83     0  03:07      0.67    0.45    1.00
  YS02006556YS02006558 CONDUIT    525.87     0  03:07      0.67    0.42    1.00
  YSB6556YSB1171       CONDUIT     16.50     0  01:50      0.07    0.02    0.60
  YS02001907YS02006553 CONDUIT    525.81     0  03:07      0.58    0.62    1.00
  YS02006558YS02006561 CONDUIT    752.49     0  03:03      3.30    1.66    0.97
  YS02001633YS02163601 CONDUIT    351.79     0  03:00      0.45    0.37    1.00
  YS02001644YS02001647 CONDUIT    532.63     0  03:07      0.68    0.31    1.00
  YS02001745YS02001748 CONDUIT    521.53     0  02:29      1.51    0.20    0.94
  YS02001748YS02001751 CONDUIT    474.60     0  02:13      1.12    0.24    1.00
  YS02001751YS02001754 CONDUIT    216.71     0  02:23      0.97    0.10    1.00
  YS02001754YS02001757 CONDUIT    217.31     0  02:23      0.33    0.09    1.00
  YS02001882YS02001884 CONDUIT     13.29     0  03:30      0.12    0.02    0.86
  YS02001884YS02001887 CONDUIT     18.10     0  03:20      0.09    0.02    0.95
  YS02001890YS02001895 CONDUIT    266.93     0  03:00      0.43    0.12    0.90
  YS02001895YS02001898 CONDUIT    264.14     0  02:37      0.56    0.46    0.79
  YS02001898YS02001901 CONDUIT    266.49     0  02:36      0.48    0.17    0.87
  YS02001901YS02001904 CONDUIT    267.60     0  02:36      0.44    0.42    0.92
  YS02001904YS02001907 CONDUIT    269.91     0  02:36      0.38    0.09    0.96
  YS02001887YS02001890 CONDUIT    268.17     0  03:00      0.38    0.46    1.00
  YS02001652YS02001649 CONDUIT    272.76     0  02:23      0.58    0.14    1.00
  YS02001655YS02001652 CONDUIT    272.57     0  02:23      1.05    0.13    1.00
  YS02001658YS02001655 CONDUIT    381.78     0  02:17      1.29    0.16    1.00
  YS02001661YS02001658 CONDUIT    609.74     0  02:24      1.59    0.24    1.00
  YS02001664YS02001661 CONDUIT    557.34     0  02:45      1.42    0.17    0.73
  YSB1154YSB6556       CONDUIT     16.24     0  01:49      0.16    0.03    0.49
  YSB1174YSB1171       CONDUIT     13.23     0  01:45      0.06    0.02    0.61
  YSB1171HS02004479    CONDUIT     29.01     0  01:50      0.54    0.02    0.47
  HS02004881HS02006253 CONDUIT     49.92     0  01:50      1.83    0.01    0.04
  YS02001793JiankangQianchi CONDUIT   1239.46     0  01:52      1.97    0.10    1.00
  YS02001757CaochengTiaoxuchi CONDUIT   1270.61     0  02:38      1.76    0.56    1.00
  WSF200WS02003060     CONDUIT    434.04     0  02:14      1.52    0.10    0.30
  1                    CONDUIT    744.90     0  02:17      3.07    0.26    0.35
  2                    CONDUIT      0.00     0  00:00      0.00    0.00    0.00
  3                    CONDUIT    568.97     0  01:55     10.26    0.91    0.84
  4                    CONDUIT      0.00     0  00:00      0.00    0.00    0.00
  CC-Pump-1            PUMP         0.00     0  00:00              0.00
  CC-Pump-2            PUMP         0.00     0  00:00              0.00
  JK-Pump-1            PUMP       300.00     0  01:43              1.00
  JK-Pump-2            PUMP       300.00     0  01:55              1.00
  XR-Pump-1            PUMP        95.00     0  00:00              1.00
  XR-Pump-2            PUMP        95.00     0  00:25              1.00
  XR-Pump-3            PUMP        95.00     0  01:32              1.00
  XR-Pump-4            PUMP         0.00     0  00:00              0.00
  
  
  ***************************
  Flow Classification Summary
  ***************************
  
  -------------------------------------------------------------------------------------
                      Adjusted    ---------- Fraction of Time in Flow Class ---------- 
                       /Actual         Up    Down  Sub   Sup   Up    Down  Norm  Inlet 
  Conduit               Length    Dry  Dry   Dry   Crit  Crit  Crit  Crit  Ltd   Ctrl  
  -------------------------------------------------------------------------------------
  WS02003066WSF200        1.00   0.07  0.00  0.00  0.00  0.93  0.00  0.00  0.76  0.00
  WS02006287WS02006284    1.00   0.02  0.01  0.00  0.47  0.50  0.00  0.00  0.70  0.00
  WS02006284WS02006280    1.00   0.03  0.00  0.00  0.00  0.00  0.00  0.97  0.00  0.00
  WS02006280WS02006229    1.00   0.03  0.00  0.00  0.00  0.00  0.00  0.97  0.00  0.00
  WS02006229WS02006228    1.00   0.00  0.00  0.00  1.00  0.00  0.00  0.00  0.00  0.00
  WS02006256WS02006235    1.00   0.04  0.00  0.00  0.94  0.02  0.00  0.00  0.01  0.00
  WS02006253WS02006251    1.00   0.01  0.01  0.00  0.97  0.00  0.00  0.00  0.00  0.00
  WS02006252WS02006251    1.00   1.00  0.00  0.00  0.00  0.00  0.00  0.00  0.00  0.00
  WS02006251WS02006249    1.00   0.00  0.00  0.00  1.00  0.00  0.00  0.00  0.80  0.00
  WS02006249WS02006248    1.00   0.00  0.00  0.00  0.19  0.00  0.81  0.00  0.00  0.00
  WS02006248WS02006247    1.00   0.00  0.00  0.00  0.98  0.00  0.00  0.01  0.76  0.00
  WS02006247WS02006245    1.00   0.00  0.00  0.00  0.98  0.00  0.00  0.02  0.00  0.00
  WS02006245WS02006243    1.00   0.01  0.00  0.00  0.96  0.00  0.00  0.03  0.07  0.00
  WS02006243WS02006242    1.00   0.01  0.00  0.00  0.96  0.00  0.00  0.03  0.24  0.00
  WS02006242WS02006240    1.00   0.01  0.02  0.00  0.96  0.00  0.01  0.00  0.00  0.00
  WS02006240WS02006239    1.00   0.03  0.00  0.00  0.95  0.00  0.00  0.02  0.05  0.00
  WS02006239WS02006238    1.00   0.04  0.00  0.00  0.96  0.00  0.00  0.01  0.00  0.00
  WS02006238WS02006235    1.00   0.04  0.01  0.00  0.96  0.00  0.00  0.00  0.00  0.00
  WS02006235WS02006234    1.00   0.04  0.00  0.00  0.94  0.00  0.01  0.00  0.00  0.00
  WS02006234WS02006232    1.00   0.04  0.00  0.00  0.96  0.00  0.00  0.00  0.01  0.00
  WS02006232WS02006231    1.00   0.04  0.00  0.00  0.96  0.00  0.00  0.00  0.00  0.00
  WS02006231WS02006230    1.00   0.04  0.00  0.00  0.36  0.00  0.60  0.00  0.00  0.00
  WS02006230WS02006229    1.00   0.00  0.00  0.00  0.99  0.00  0.00  0.01  0.01  0.00
  WS02006228WS02006109    1.00   0.00  0.00  0.00  1.00  0.00  0.00  0.00  0.00  0.00
  WS02006116WS02004401    1.00   0.02  0.00  0.00  0.98  0.00  0.00  0.00  0.00  0.00
  WS02006115WS02006116    1.00   0.02  0.00  0.00  0.96  0.00  0.00  0.02  0.00  0.00
  WS02006113WS02006111    1.00   0.01  0.00  0.00  0.01  0.98  0.00  0.00  0.14  0.00
  WS02006112WS02006115    1.00   0.01  0.01  0.00  0.98  0.00  0.00  0.00  0.00  0.00
  WS02006111WS02006112    1.00   0.01  0.00  0.00  0.98  0.00  0.00  0.00  0.92  0.00
  WS02006110WS02006113    1.00   0.00  0.01  0.00  0.99  0.00  0.00  0.00  0.00  0.00
  WS02006109WS02006110    1.00   0.00  0.00  0.00  1.00  0.00  0.00  0.00  0.00  0.00
  WS02004411WS02004412    1.00   0.05  0.00  0.00  0.95  0.00  0.00  0.00  0.00  0.00
  WS02004401WS02004402    1.00   0.02  0.00  0.00  0.98  0.00  0.00  0.00  0.04  0.00
  WS02004413WS02003067    1.00   0.05  0.01  0.00  0.00  0.00  0.94  0.00  0.00  0.00
  WS02004412WS02004413    1.00   0.05  0.00  0.00  0.95  0.00  0.00  0.00  0.00  0.00
  WS02004410WS02004411    1.00   0.05  0.00  0.00  0.95  0.00  0.00  0.00  0.00  0.00
  WS02004409WS02004410    1.00   0.05  0.00  0.00  0.95  0.00  0.00  0.00  0.00  0.00
  WS02004407WS02004409    1.00   0.05  0.00  0.00  0.95  0.01  0.00  0.00  0.79  0.00
  WS02004406WS02004407    1.00   0.00  0.05  0.00  0.95  0.00  0.00  0.00  0.00  0.00
  WS02004405WS02004406    1.00   0.00  0.00  0.00  1.00  0.00  0.00  0.00  0.04  0.00
  WS02004404WS02004405    1.00   0.00  0.00  0.00  1.00  0.00  0.00  0.00  0.04  0.00
  WS02004403WS02004404    1.00   0.00  0.02  0.00  0.98  0.00  0.00  0.00  0.04  0.00
  WS02004402WS02004403    1.00   0.02  0.00  0.00  0.98  0.00  0.00  0.00  0.00  0.00
  WS02004139WS02001211    1.00   0.00  0.00  0.00  1.00  0.00  0.00  0.00  0.00  0.00
  WS02004138WS02004139    1.00   0.00  0.00  0.00  1.00  0.00  0.00  0.00  1.00  0.00
  WS02003067WS02003066    1.00   0.06  0.01  0.00  0.94  0.00  0.00  0.00  0.00  0.00
  WS02001213WS02003059    1.00   0.00  0.00  0.00  1.00  0.00  0.00  0.00  0.00  0.00
  WS02001212WS02001213    1.00   0.00  0.00  0.00  0.59  0.00  0.41  0.00  0.00  0.00
  WS02001211WS02001212    1.00   0.00  0.00  0.00  1.00  0.00  0.00  0.00  0.00  0.00
  WS02003072WS02003073    1.00   0.00  0.00  0.00  0.00  0.00  0.00  1.00  0.00  0.00
  WS02003069WS02003072    1.00   0.00  0.00  0.00  1.00  0.00  0.00  0.00  0.28  0.00
  WS02003060WS02003069    1.00   0.00  0.00  0.00  0.99  0.01  0.00  0.00  0.17  0.00
  WS02003059WS02003060    1.00   0.00  0.00  0.00  1.00  0.00  0.00  0.00  0.02  0.00
  HS02004901HS02004770    1.00   0.03  0.00  0.00  0.97  0.00  0.00  0.00  0.00  0.00
  HS02004876HS02004881    1.00   0.00  0.00  0.00  1.00  0.00  0.00  0.00  0.00  0.00
  HS02004870HS02004876    1.00   0.00  0.00  0.00  1.00  0.00  0.00  0.00  0.95  0.00
  HS02004842HS02004848    1.00   0.00  0.03  0.00  0.97  0.00  0.00  0.00  0.58  0.00
  HS02004837HS02004842    1.00   0.00  0.00  0.00  1.00  0.00  0.00  0.00  0.11  0.00
  HS02004830HS02004837    1.00   0.00  0.00  0.00  1.00  0.00  0.00  0.00  0.99  0.00
  HS02004824HS02004830    1.00   0.00  0.00  0.00  1.00  0.00  0.00  0.00  0.00  0.00
  HS02004817HS02004824    1.00   0.00  0.00  0.00  1.00  0.00  0.00  0.00  1.00  0.00
  HS02004770HS02004777    1.00   0.00  0.03  0.00  0.97  0.00  0.00  0.00  0.03  0.00
  HS02004799HS02004480    1.00   0.00  0.01  0.00  0.97  0.00  0.02  0.00  0.00  0.00
  HS02004792HS02004799    1.00   0.00  0.00  0.00  1.00  0.00  0.00  0.00  0.98  0.00
  HS02004788HS02004792    1.00   0.00  0.00  0.00  1.00  0.00  0.00  0.00  0.98  0.00
  HS02004785HS02004788    1.00   0.00  0.00  0.00  1.00  0.00  0.00  0.00  0.00  0.00
  HS02004777HS02004785    1.00   0.00  0.00  0.00  1.00  0.00  0.00  0.00  0.12  0.00
  HS02004480HS02004478    1.00   0.03  0.00  0.00  0.55  0.00  0.00  0.43  0.00  0.00
  HS02004479HS02004480    1.00   0.01  0.00  0.00  0.99  0.00  0.00  0.00  0.12  0.00
  HS02004862HS02004870    1.00   0.00  0.00  0.00  1.00  0.00  0.00  0.00  0.04  0.00
  HS02004848HS02004852    1.00   0.03  0.00  0.00  0.97  0.00  0.00  0.00  0.77  0.00
  HS02004856HS02004862    1.00   0.00  0.03  0.00  0.97  0.00  0.00  0.00  0.82  0.00
  HS02004852HS02004856    1.00   0.03  0.00  0.00  0.97  0.00  0.00  0.00  0.86  0.00
  HS02004802HS02004478    1.00   0.03  0.00  0.00  0.97  0.00  0.00  0.00  0.03  0.00
  HS02004478WS02006287    1.00   0.03  0.00  0.00  0.65  0.32  0.00  0.00  0.68  0.00
  HS02004817HS02004807    1.00   0.00  0.03  0.00  0.97  0.00  0.00  0.00  0.01  0.00
  HS02004807HS02004802    1.00   0.03  0.00  0.00  0.97  0.00  0.00  0.00  0.00  0.00
  YS02001759YS02001757    1.00   0.00  0.00  0.00  1.00  0.00  0.00  0.00  0.16  0.00
  YS02001762YS02001759    1.00   0.00  0.00  0.00  1.00  0.00  0.00  0.00  0.03  0.00
  YS02001765YS02001762    1.00   0.00  0.00  0.00  1.00  0.00  0.00  0.00  0.14  0.00
  YS02001770YS02001767    1.00   0.00  0.00  0.00  1.00  0.00  0.00  0.00  0.00  0.00
  YS02001774YS02001770    1.00   0.00  0.03  0.00  0.97  0.00  0.00  0.00  0.03  0.00
  YS02001779YS02001774    1.00   0.00  0.00  0.00  1.00  0.00  0.00  0.00  0.18  0.00
  YS02001649YS02001757    1.00   0.00  0.00  0.00  1.00  0.00  0.00  0.00  0.16  0.00
  YS02001767YS02001765    1.00   0.00  0.00  0.00  1.00  0.00  0.00  0.00  0.00  0.00
  YS02006561YS02001783    1.00   0.04  0.00  0.00  0.25  0.71  0.00  0.00  0.53  0.00
  YS02001783YS02001784    1.00   0.00  0.04  0.00  0.96  0.00  0.00  0.00  0.00  0.00
  YS02001784YS02001785    1.00   0.00  0.00  0.00  1.00  0.00  0.00  0.00  0.17  0.00
  YS02001788YS02001790    1.00   0.00  0.00  0.00  0.32  0.68  0.00  0.00  0.52  0.00
  YS02001790YS02001791    1.00   0.00  0.00  0.00  0.30  0.70  0.00  0.00  0.62  0.00
  YS02001791YS02001793    1.00   0.00  0.00  0.00  0.63  0.37  0.00  0.00  0.32  0.00
  YS02001910YS02001907    1.00   0.00  0.00  0.00  0.99  0.00  0.00  0.01  0.12  0.00
  YS02001786YS02001788    1.00   0.00  0.00  0.00  0.29  0.71  0.00  0.00  0.00  0.00
  YS02001915YS02001910    1.00   0.00  0.00  0.00  0.99  0.01  0.00  0.00  0.16  0.00
  YS02001918YS02001915    1.00   0.00  0.00  0.00  1.00  0.00  0.00  0.00  0.60  0.00
  YS02001923YS02001920    1.00   0.00  0.00  0.00  1.00  0.00  0.00  0.00  0.93  0.00
  YS02001926YS02001923    1.00   0.00  0.01  0.00  0.00  0.00  0.98  0.00  0.00  0.00
  YS02001929YS02001926    1.00   0.00  0.03  0.00  0.97  0.00  0.00  0.00  0.87  0.00
  YS02001920YS02001918    1.00   0.00  0.00  0.00  1.00  0.00  0.00  0.00  0.00  0.00
  YS02001629YS02163301    1.00   0.03  0.00  0.00  0.97  0.00  0.00  0.00  0.00  0.00
  YS02001619YS02001622    1.00   0.03  0.00  0.00  0.97  0.00  0.00  0.00  0.00  0.00
  YS02001622YS02001625    1.00   0.03  0.00  0.00  0.97  0.00  0.00  0.00  0.04  0.00
  YS02001625YS02001629    1.00   0.03  0.01  0.00  0.95  0.00  0.01  0.00  0.00  0.00
  YS02163301YS02001633    1.00   0.00  0.03  0.00  0.97  0.00  0.00  0.00  0.00  0.00
  YS02163601YS02164001    1.00   0.00  0.02  0.00  0.98  0.00  0.00  0.00  0.00  0.00
  YS02164001YS02001641    1.00   0.00  0.02  0.00  0.98  0.00  0.00  0.00  0.06  0.00
  YS02001641YS02001644    1.00   0.00  0.00  0.00  1.00  0.00  0.00  0.00  0.00  0.00
  YS02001647YS02001649    1.00   0.00  0.04  0.00  0.96  0.00  0.00  0.00  0.01  0.00
  YS02006553YS02006556    1.00   0.00  0.00  0.00  1.00  0.00  0.00  0.00  0.03  0.00
  YS02006556YS02006558    1.00   0.00  0.00  0.00  1.00  0.00  0.00  0.00  0.00  0.00
  YSB6556YSB1171          1.00   0.01  0.02  0.00  0.97  0.00  0.00  0.00  0.00  0.00
  YS02001907YS02006553    1.00   0.00  0.00  0.00  1.00  0.00  0.00  0.00  0.00  0.00
  YS02006558YS02006561    1.00   0.04  0.00  0.00  0.09  0.87  0.00  0.00  0.53  0.00
  YS02001633YS02163601    1.00   0.00  0.00  0.00  1.00  0.00  0.00  0.00  0.15  0.00
  YS02001644YS02001647    1.00   0.00  0.04  0.00  0.96  0.00  0.00  0.00  0.00  0.00
  YS02001745YS02001748    1.00   0.00  0.00  0.00  0.92  0.01  0.00  0.07  0.04  0.00
  YS02001748YS02001751    1.00   0.00  0.00  0.00  0.98  0.02  0.00  0.00  0.14  0.00
  YS02001751YS02001754    1.00   0.00  0.00  0.00  0.96  0.00  0.00  0.04  0.02  0.00
  YS02001754YS02001757    1.00   0.00  0.00  0.00  1.00  0.00  0.00  0.00  0.18  0.00
  YS02001882YS02001884    1.00   0.03  0.00  0.00  0.97  0.00  0.00  0.00  0.00  0.00
  YS02001884YS02001887    1.00   0.01  0.01  0.00  0.98  0.00  0.00  0.00  0.00  0.00
  YS02001890YS02001895    1.00   0.00  0.03  0.00  0.97  0.00  0.00  0.00  0.00  0.00
  YS02001895YS02001898    1.00   0.03  0.00  0.00  0.96  0.00  0.01  0.00  0.00  0.00
  YS02001898YS02001901    1.00   0.03  0.00  0.00  0.97  0.00  0.00  0.00  0.01  0.00
  YS02001901YS02001904    1.00   0.03  0.00  0.00  0.97  0.00  0.00  0.00  0.00  0.00
  YS02001904YS02001907    1.00   0.00  0.03  0.00  0.97  0.00  0.00  0.00  0.00  0.00
  YS02001887YS02001890    1.00   0.00  0.00  0.00  0.99  0.00  0.01  0.00  0.00  0.00
  YS02001652YS02001649    1.00   0.00  0.00  0.00  1.00  0.00  0.00  0.00  0.16  0.00
  YS02001655YS02001652    1.00   0.00  0.00  0.00  0.96  0.00  0.00  0.04  0.02  0.00
  YS02001658YS02001655    1.00   0.00  0.03  0.00  0.95  0.02  0.00  0.00  0.05  0.00
  YS02001661YS02001658    1.00   0.03  0.00  0.00  0.92  0.05  0.00  0.00  0.04  0.00
  YS02001664YS02001661    1.00   0.03  0.00  0.00  0.88  0.09  0.00  0.00  0.19  0.00
  YSB1154YSB6556          1.00   0.03  0.00  0.00  0.97  0.00  0.00  0.00  0.02  0.00
  YSB1174YSB1171          1.00   0.01  0.01  0.00  0.98  0.00  0.00  0.00  0.00  0.00
  YSB1171HS02004479       1.00   0.01  0.00  0.00  0.99  0.00  0.00  0.00  0.10  0.00
  HS02004881HS02006253    1.00   0.01  0.00  0.00  0.00  0.00  0.00  0.99  0.00  0.00
  YS02001793JiankangQianchi    1.00   0.00  0.00  0.00  1.00  0.00  0.00  0.00  0.46  0.00
  YS02001757CaochengTiaoxuchi    1.00   0.00  0.05  0.00  0.95  0.00  0.00  0.00  0.00  0.00
  WSF200WS02003060        1.00   0.00  0.07  0.00  0.93  0.00  0.00  0.00  0.59  0.00
  1                       1.00   0.00  0.00  0.00  0.00  1.00  0.00  0.00  0.33  0.00
  2                       1.00   1.00  0.00  0.00  0.00  0.00  0.00  0.00  0.00  0.00
  3                       1.00   0.11  0.00  0.00  0.00  0.89  0.00  0.00  0.02  0.00
  4                       1.00   1.00  0.00  0.00  0.00  0.00  0.00  0.00  0.00  0.00
  
  
  *************************
  Conduit Surcharge Summary
  *************************
  
  ----------------------------------------------------------------------------
                                                           Hours        Hours 
                         --------- Hours Full --------   Above Full   Capacity
  Conduit                Both Ends  Upstream  Dnstream   Normal Flow   Limited
  ----------------------------------------------------------------------------
  WS02006229WS02006228        0.67      0.74      0.67      1.47         0.67
  WS02006256WS02006235        4.32      4.34      6.20      4.53         0.01
  WS02006235WS02006234        0.01      0.01      0.01      4.38         0.01
  WS02006231WS02006230        0.01      0.01      0.01      4.66         0.01
  WS02006230WS02006229        1.30      1.35      1.30      5.47         1.30
  WS02006228WS02006109        0.71      0.96      0.71      1.85         0.71
  WS02006111WS02006112        0.01      0.01      1.61      0.01         0.01
  WS02006110WS02006113        0.01      0.01      0.81      0.01         0.01
  WS02006109WS02006110        0.01      0.01      0.96      0.01         0.01
  WS02004404WS02004405        0.01      0.01      0.01      4.37         0.01
  WS02003072WS02003073        0.01      0.01      0.01      3.39         0.01
  YS02001759YS02001757        5.97      5.97      6.03      0.01         0.01
  YS02001762YS02001759        5.94      5.94      5.97      0.01         0.01
  YS02001765YS02001762        5.92      5.92      5.94      0.01         0.01
  YS02001770YS02001767        5.90      5.90      5.90      0.01         0.56
  YS02001774YS02001770        5.88      5.88      5.93      0.01         0.01
  YS02001779YS02001774        5.71      5.71      5.93      0.01         0.01
  YS02001649YS02001757        5.95      5.95      6.03      0.01         0.01
  YS02001767YS02001765        5.90      5.90      5.92      0.01         0.01
  YS02006561YS02001783        0.01      0.01      0.82      0.01         0.01
  YS02001783YS02001784        0.82      0.82      0.84      0.29         0.27
  YS02001784YS02001785        0.81      0.84      0.81      1.91         0.81
  YS02001788YS02001790        0.80      0.80      1.06      0.01         0.01
  YS02001790YS02001791        1.06      1.06      1.13      0.01         0.01
  YS02001791YS02001793        1.13      1.13      1.63      0.01         0.01
  YS02001910YS02001907        0.19      0.19      1.24      0.01         0.01
  YS02001786YS02001788        0.80      0.81      0.80      1.51         0.80
  YS02001915YS02001910        0.01      0.01      0.19      0.01         0.01
  YS02001629YS02163301        5.88      5.88      5.89      0.01         0.01
  YS02001619YS02001622        5.47      5.47      5.54      0.01         0.02
  YS02001622YS02001625        5.54      5.54      5.84      0.01         0.01
  YS02001625YS02001629        5.49      5.49      5.84      0.01         0.01
  YS02163301YS02001633        5.89      5.89      5.92      0.01         0.01
  YS02163601YS02164001        5.92      5.92      5.95      0.01         0.01
  YS02164001YS02001641        5.92      5.92      5.93      0.01         0.02
  YS02001641YS02001644        5.93      5.93      5.93      0.76         1.05
  YS02001647YS02001649        5.82      5.82      5.95      0.01         0.01
  YS02006553YS02006556        0.64      0.64      1.31      0.01         0.01
  YS02006556YS02006558        1.00      1.00      1.40      0.01         0.01
  YS02001907YS02006553        1.92      1.92      2.14      0.01         0.01
  YS02006558YS02006561        0.01      0.57      0.01      1.76         0.01
  YS02001633YS02163601        5.91      5.91      5.95      0.01         0.01
  YS02001644YS02001647        5.82      5.82      5.93      0.01         0.01
  YS02001745YS02001748        0.01      0.01      5.25      0.01         0.01
  YS02001748YS02001751        5.31      5.31      5.50      0.01         0.01
  YS02001751YS02001754        5.50      5.50      5.75      0.01         0.01
  YS02001754YS02001757        5.82      5.82      6.03      0.01         0.01
  YS02001890YS02001895        0.01      0.01      0.25      0.01         0.01
  YS02001904YS02001907        0.01      0.01      1.34      0.01         0.01
  YS02001887YS02001890        0.01      0.01      0.14      0.01         0.01
  YS02001652YS02001649        5.83      5.83      5.95      0.01         0.01
  YS02001655YS02001652        5.51      5.51      5.80      0.01         0.01
  YS02001658YS02001655        5.27      5.27      5.51      0.01         0.01
  YS02001661YS02001658        0.18      0.18      5.27      0.01         0.01
  YS02001664YS02001661        0.01      0.01      0.83      0.01         0.01
  YS02001793JiankangQianchi        1.36      1.36      7.82      0.01         0.01
  YS02001757CaochengTiaoxuchi        5.22      5.22      6.03      0.01         0.01
  3                           0.01      0.01      0.01      0.01         0.01
  
  
  ***************
  Pumping Summary
  ***************
  
  ---------------------------------------------------------------------------------------------------------
                                                  Min       Avg       Max     Total     Power    % Time Off
                        Percent   Number of      Flow      Flow      Flow    Volume     Usage    Pump Curve
  Pump                 Utilized   Start-Ups       LPS       LPS       LPS  10^6 ltr     Kw-hr    Low   High
  ---------------------------------------------------------------------------------------------------------
  CC-Pump-1                0.00           0      0.00      0.00      0.00     0.000      0.00    0.0    0.0
  CC-Pump-2                0.00           0      0.00      0.00      0.00     0.000      0.00    0.0    0.0
  JK-Pump-1               58.02           9      0.00    300.00    300.00     4.909     34.05    0.0    0.0
  JK-Pump-2               24.49           9      0.00    300.00    300.00     2.072     10.86    0.0    0.0
  XR-Pump-1              100.00           1      0.00     95.00     95.00     2.679     15.63    0.0    0.0
  XR-Pump-2               94.70           1      0.00     95.00     95.00     2.537     14.21    0.0    0.0
  XR-Pump-3               78.86           1      0.00     95.00     95.00     2.113     10.88    0.0    0.0
  XR-Pump-4                0.00           0      0.00      0.00      0.00     0.000      0.00    0.0    0.0
  

  Analysis begun on:  Wed Jan  5 19:00:27 2022
  Analysis ended on:  Wed Jan  5 19:00:30 2022
  Total elapsed time: 00:00:03