
  EPA STORM WATER MANAGEMENT MODEL - VERSION 5.1 (Build 5.3.0.dev0)
  --------------------------------------------------------------

  WARNING 04: minimum elevation drop used for Conduit WS02004404WS02004405
  WARNING 03: negative offset ignored for Link YS02001904YS02001907
  
  *********************************************************
  NOTE: The summary statistics displayed in this report are
  based on results found at every computational time step,  
  not just on results from each reporting time step.
  *********************************************************
  
  ****************
  Analysis Options
  ****************
  Flow Units ............... LPS
  Process Models:
    Rainfall/Runoff ........ YES
    RDII ................... NO
    Snowmelt ............... NO
    Groundwater ............ NO
    Flow Routing ........... YES
    Ponding Allowed ........ NO
    Water Quality .......... YES
  Infiltration Method ...... HORTON
  Flow Routing Method ...... DYNWAVE
  Surcharge Method ......... EXTRAN
  Starting Date ............ 08/28/2015 08:00:00
  Ending Date .............. 08/28/2015 16:00:00
  Antecedent Dry Days ...... 8.0
  Report Time Step ......... 00:01:00
  Wet Time Step ............ 00:01:00
  Dry Time Step ............ 00:01:00
  Routing Time Step ........ 5.00 sec
  Variable Time Step ....... YES
  Maximum Trials ........... 8
  Number of Threads ........ 4
  Head Tolerance ........... 0.001500 m
  
  
  **************************        Volume         Depth
  Runoff Quantity Continuity     hectare-m            mm
  **************************     ---------       -------
  Total Precipitation ......         8.849        19.374
  Evaporation Loss .........         0.000         0.000
  Infiltration Loss ........         1.283         2.810
  Surface Runoff ...........         6.536        14.309
  Final Storage ............         1.031         2.257
  Continuity Error (%) .....        -0.015
  
  
  **************************           COD            SS            TN            TP         NH4-N
  Runoff Quality Continuity             kg            kg            kg            kg            kg
  **************************    ----------    ----------    ----------    ----------    ----------
  Initial Buildup ..........     41378.656     70582.865      1804.177       168.684      1032.807
  Surface Buildup ..........        37.682        81.699         2.542         0.226         1.439
  Wet Deposition ...........         0.000         0.000         0.000         0.000         0.000
  Sweeping Removal .........         0.000         0.000         0.000         0.000         0.000
  Infiltration Loss ........       147.005       285.814         2.849         0.204         1.368
  BMP Removal ..............         0.000         0.000         0.000         0.000         0.000
  Surface Runoff ...........      7025.177     13610.698       136.014         9.496        65.021
  Remaining Buildup ........     34241.510     56762.910      1667.801       159.206       967.831
  Continuity Error (%) .....         0.006         0.007         0.003         0.002         0.003
  
  
  **************************        Volume        Volume
  Flow Routing Continuity        hectare-m      10^6 ltr
  **************************     ---------     ---------
  Dry Weather Inflow .......         0.630         6.296
  Wet Weather Inflow .......         6.535        65.347
  Groundwater Inflow .......         0.000         0.000
  RDII Inflow ..............         0.000         0.000
  External Inflow ..........         0.105         1.045
  External Outflow .........         2.900        28.996
  Flooding Loss ............         3.942        39.424
  Evaporation Loss .........         0.000         0.000
  Exfiltration Loss ........         0.000         0.000
  Initial Stored Volume ....         0.076         0.761
  Final Stored Volume ......         0.514         5.135
  Continuity Error (%) .....        -0.146
  
  
  **************************           COD            SS            TN            TP         NH4-N
  Quality Routing Continuity            kg            kg            kg            kg            kg
  **************************    ----------    ----------    ----------    ----------    ----------
  Dry Weather Inflow .......      1573.993      2518.389       151.103        18.888        94.440
  Wet Weather Inflow .......      7024.955     13610.460       136.008         9.496        65.018
  Groundwater Inflow .......         0.000         0.000         0.000         0.000         0.000
  RDII Inflow ..............         0.000         0.000         0.000         0.000         0.000
  External Inflow ..........       187.321       299.713        17.983         2.248        11.239
  External Outflow .........      3391.101      6215.709       144.888        15.522        83.711
  Flooding Loss ............      4907.985      9384.261       137.081        12.619        73.530
  Exfiltration Loss ........         0.000         0.000         0.000         0.000         0.000
  Mass Reacted .............         0.000         0.000         0.000         0.000         0.000
  Initial Stored Mass ......         0.000         0.000         0.000         0.000         0.000
  Final Stored Mass ........       441.509       757.974        20.888         2.253        12.155
  Continuity Error (%) .....         0.520         0.430         0.733         0.776         0.763
  
  
  *************************
  Highest Continuity Errors
  *************************
  Node HS02004842 (9.52%)
  Node YS02001884 (8.25%)
  Node WS02003059 (4.63%)
  Node HS02004817 (1.88%)
  Node YSB1171 (1.69%)
  
  
  ***************************
  Time-Step Critical Elements
  ***************************
  Link WS02006280WS02006229 (36.55%)
  Link WS02006256WS02006235 (25.14%)
  Link YS02001793JiankangQianchi (13.95%)
  Link YS02006556YS02006558 (7.92%)
  Link YS02001661YS02001658 (2.39%)
  
  
  ********************************
  Highest Flow Instability Indexes
  ********************************
  Link WS02006113WS02006111 (34)
  Link YS02006558YS02006561 (21)
  Link YS02006556YS02006558 (19)
  Link WS02006111WS02006112 (18)
  Link YS02006561YS02001783 (18)
  
  
  *************************
  Routing Time Step Summary
  *************************
  Minimum Time Step           :     0.50 sec
  Average Time Step           :     2.28 sec
  Maximum Time Step           :     5.00 sec
  Percent in Steady State     :    -0.00
  Average Iterations per Step :     2.92
  Percent Not Converging      :     9.67
  
  
  ***************************
  Subcatchment Runoff Summary
  ***************************
  
  ------------------------------------------------------------------------------------------------------------------------------
                            Total      Total      Total      Total     Imperv       Perv      Total       Total     Peak  Runoff
                           Precip      Runon       Evap      Infil     Runoff     Runoff     Runoff      Runoff   Runoff   Coeff
  Subcatchment                 mm         mm         mm         mm         mm         mm         mm    10^6 ltr      LPS
  ------------------------------------------------------------------------------------------------------------------------------
  sub0                      19.37       0.00       0.00       0.72      17.97       0.64      18.61        0.02     3.90   0.961
  sub1                      19.37       0.00       0.00       1.22      17.15       0.91      18.07        0.12    27.82   0.932
  sub2                      19.37       0.00       0.00       5.12      12.12       2.04      14.17        0.13    27.41   0.731
  sub3                      19.37       0.00       0.00       5.40      12.09       1.77      13.85        0.31    61.11   0.715
  sub4                      19.37       0.00       0.00       1.34      17.00       0.79      17.79        0.37    71.85   0.918
  sub5                      19.37       0.00       0.00       0.75      17.92       0.60      18.53        0.21    48.63   0.956
  sub7                      19.37       0.00       0.00       0.95      17.57       0.79      18.36        0.06    15.22   0.948
  sub8                      19.37       0.00       0.00       0.96      17.56       0.78      18.34        0.12    28.21   0.947
  sub9                      19.37       0.00       0.00       0.97      17.56       0.78      18.34        0.09    21.14   0.946
  sub10                     19.37       0.00       0.00       0.86      17.74       0.69      18.43        0.20    47.68   0.951
  sub11                     19.37       0.00       0.00       0.85      17.76       0.70      18.46        0.21    51.98   0.953
  sub12                     19.37       0.00       0.00       1.38      16.81       1.14      17.95        0.16    39.99   0.926
  sub14                     19.37       0.00       0.00       0.97      17.56       0.78      18.33        0.17    41.67   0.946
  sub15                     19.37       0.00       0.00       3.73      13.50       2.09      15.59        0.27    60.70   0.805
  sub16                     19.37       0.00       0.00       3.89      12.94       2.51      15.45        0.16    38.89   0.797
  sub17                     19.37       0.00       0.00       3.79      13.13       2.41      15.54        0.13    31.85   0.802
  sub22                     19.37       0.00       0.00       5.58      11.00       2.75      13.75        0.87   192.54   0.710
  sub23                     19.37       0.00       0.00       4.60      12.16       2.57      14.73        0.70   160.90   0.760
  sub60                     19.37       0.00       0.00       1.90      15.08       0.42      15.50        4.70   527.40   0.800
  sub61                     19.37       0.00       0.00       2.69      14.92       0.60      15.52        4.79   614.21   0.801
  sub62                     19.37       0.00       0.00       1.14      16.34       0.41      16.74        5.15   635.44   0.864
  sub63                     19.37       0.00       0.00       4.88      12.94       0.74      13.68        4.14   558.20   0.706
  sub64                     19.37       0.00       0.00       2.46      14.50       0.45      14.95        4.54   505.23   0.771
  sub65                     19.37       0.00       0.00       2.10      14.78       0.42      15.20        4.67   514.72   0.784
  sub66                     19.37       0.00       0.00       5.10      12.33       0.52      12.85        3.94   455.07   0.663
  sub67                     19.37       0.00       0.00       1.08      16.89       0.47      17.36        5.36   754.97   0.896
  sub68                     19.37       0.00       0.00       2.12      15.60       0.59      16.19        4.98   663.31   0.836
  sub69                     19.37       0.00       0.00       2.15      15.87       0.75      16.62        3.89   601.22   0.858
  sub70                     19.37      16.97       0.00       9.19      22.45       3.16      25.61        5.86   681.27   0.705
  sub71                     19.37       0.00       0.00       1.17      16.07       0.38      16.45        3.88   456.38   0.849
  sub72                     19.37       0.00       0.00       1.12      13.80       0.23      14.04        2.86   261.48   0.724
  1                         19.37      24.94       0.00       1.40      26.96       9.21      36.16        8.50   777.79   0.816
  2                         19.37       0.00       0.00       3.09       4.70       4.14       8.84        3.54   368.53   0.456
  
  
  ****************************
  Subcatchment Washoff Summary
  ****************************
  
  ------------------------------------------------------------------------------------------
                                 COD            SS            TN            TP         NH4-N
  Subcatchment                    kg            kg            kg            kg            kg
  ------------------------------------------------------------------------------------------
  sub0                         4.283         8.394         0.077         0.006         0.038
  sub1                        18.717        37.980         0.357         0.025         0.173
  sub2                        12.812        25.592         0.267         0.018         0.124
  sub3                        31.577        62.655         0.647         0.045         0.301
  sub4                        43.822        90.496         0.870         0.054         0.420
  sub5                        42.531        84.857         0.784         0.060         0.383
  sub7                         9.354        19.205         0.180         0.012         0.087
  sub8                        13.951        29.381         0.280         0.017         0.135
  sub9                        12.010        24.915         0.235         0.015         0.114
  sub10                       34.893        70.566         0.657         0.048         0.320
  sub11                       33.652        68.785         0.644         0.045         0.313
  sub12                       29.031        58.147         0.542         0.041         0.263
  sub14                       25.777        52.943         0.497         0.034         0.241
  sub15                       36.398        72.318         0.708         0.053         0.335
  sub16                       23.578        46.709         0.455         0.035         0.216
  sub17                       21.658        42.507         0.409         0.032         0.195
  sub22                      120.179       235.339         2.299         0.176         1.085
  sub23                       67.151       135.848         1.414         0.095         0.656
  sub60                      447.354       871.503         8.821         0.558         4.245
  sub61                      554.556      1073.787        10.371         0.728         5.015
  sub62                      562.525      1106.116        10.957         0.715         5.284
  sub63                      416.378       795.395         8.243         0.592         3.862
  sub64                      575.285      1082.207        10.630         0.789         5.104
  sub65                      586.720      1107.863        10.903         0.796         5.242
  sub66                      331.376       629.588         6.668         0.447         3.139
  sub67                      829.559      1609.666        15.166         1.138         7.368
  sub68                      600.968      1173.160        11.514         0.797         5.533
  sub69                      533.267      1048.056        10.093         0.726         4.857
  sub70                      966.449      1900.133        19.563         1.395         9.276
  sub71                      370.814       736.763         7.528         0.450         3.616
  sub72                      320.309       594.540         5.967         0.418         2.880
  1                          763.204      1508.340        15.635         1.115         7.350
  2                           84.756       155.134         2.288         0.140         0.986
  ------------------------------------------------------------------------------------------
  System                    8524.892     16558.887       165.670        11.617        79.154
  
  
  ******************
  Node Depth Summary
  ******************
  
  ---------------------------------------------------------------------------------
                                 Average  Maximum  Maximum  Time of Max    Reported
                                   Depth    Depth      HGL   Occurrence   Max Depth
  Node                 Type       Meters   Meters   Meters  days hr:min      Meters
  ---------------------------------------------------------------------------------
  WS02001211           JUNCTION     0.29     0.36     5.19     0  02:06        0.36
  WS02001212           JUNCTION     0.07     0.17     5.24     0  02:05        0.17
  WS02001213           JUNCTION     0.36     0.53     5.29     0  02:04        0.53
  WS02003069           JUNCTION     0.22     0.41     4.99     0  02:05        0.41
  WS02003072           JUNCTION     0.28     0.48     4.85     0  02:06        0.48
  WS02003073           JUNCTION     0.15     0.28     4.35     0  02:07        0.28
  WS02003060           JUNCTION     0.20     0.36     5.30     0  02:04        0.36
  WS02003066           JUNCTION     0.17     0.30     5.86     0  02:03        0.30
  WS02003059           JUNCTION     0.43     0.61     5.30     0  02:05        0.61
  WS02003067           JUNCTION     0.43     0.71     6.03     0  02:03        0.71
  WS02004401           JUNCTION     0.52     0.88     6.88     0  02:00        0.88
  WS02004402           JUNCTION     0.55     0.90     6.86     0  02:00        0.90
  WS02004403           JUNCTION     0.57     0.92     6.85     0  02:00        0.92
  WS02004404           JUNCTION     0.65     0.99     6.84     0  02:00        0.99
  WS02004406           JUNCTION     0.66     0.97     6.80     0  02:01        0.97
  WS02004409           JUNCTION     0.33     0.69     6.46     0  02:02        0.69
  WS02004410           JUNCTION     0.35     0.70     6.42     0  02:03        0.70
  WS02004411           JUNCTION     0.37     0.71     6.39     0  02:03        0.71
  WS02004412           JUNCTION     0.39     0.72     6.36     0  02:03        0.72
  WS02004413           JUNCTION     0.54     0.87     6.34     0  02:03        0.87
  WS02004405           JUNCTION     0.65     0.98     6.83     0  02:00        0.98
  WS02006109           JUNCTION     0.58     0.98     7.60     0  01:57        0.98
  WS02006110           JUNCTION     0.59     0.93     7.51     0  01:59        0.93
  WS02006111           JUNCTION     0.15     0.29     7.00     0  01:57        0.29
  WS02006112           JUNCTION     0.67     1.09     6.97     0  01:58        1.09
  WS02006113           JUNCTION     0.23     0.46     7.35     0  01:58        0.46
  WS02006115           JUNCTION     0.41     0.78     6.92     0  02:00        0.78
  WS02006116           JUNCTION     0.49     0.86     6.90     0  02:00        0.86
  WS02006230           JUNCTION     0.49     0.94     7.69     0  01:58        0.94
  WS02006231           JUNCTION     0.24     0.53     7.65     0  01:58        0.53
  WS02006232           JUNCTION     0.33     0.60     7.63     0  01:58        0.60
  WS02006234           JUNCTION     0.20     0.42     7.57     0  01:58        0.42
  WS02006235           JUNCTION     0.20     0.32     7.49     0  01:59        0.32
  WS02006238           JUNCTION     0.24     0.35     7.49     0  02:00        0.35
  WS02006240           JUNCTION     0.20     0.27     7.57     0  02:00        0.27
  WS02006242           JUNCTION     0.27     0.35     7.62     0  02:00        0.35
  WS02006243           JUNCTION     0.17     0.23     7.65     0  02:00        0.23
  WS02006245           JUNCTION     0.19     0.25     7.74     0  01:59        0.25
  WS02006247           JUNCTION     0.22     0.29     7.79     0  01:58        0.29
  WS02006248           JUNCTION     0.18     0.24     7.82     0  01:58        0.24
  WS02006249           JUNCTION     0.22     0.28     7.88     0  01:57        0.28
  WS02006239           JUNCTION     0.22     0.31     7.52     0  02:00        0.31
  WS02006251           JUNCTION     0.20     0.27     7.94     0  01:57        0.27
  WS02006252           JUNCTION     0.52     0.59     8.84     0  01:45        0.59
  WS02006253           JUNCTION     0.25     0.38     8.02     0  01:56        0.38
  WS02006256           JUNCTION     1.96     2.35     9.28     0  00:00        2.35
  WS02004138           JUNCTION     0.17     0.17     7.42     0  00:00        0.17
  WS02004139           JUNCTION     0.20     0.23     5.14     0  02:07        0.23
  WS02004407           JUNCTION     0.15     0.31     6.62     0  02:01        0.31
  WS02006228           JUNCTION     0.57     1.03     7.68     0  01:57        1.02
  WS02006229           JUNCTION     0.53     1.02     7.71     0  01:58        1.02
  WS02006280           JUNCTION     0.11     0.27     8.55     0  01:57        0.27
  WS02006284           JUNCTION     0.42     0.67     9.07     0  01:57        0.67
  WS02006287           JUNCTION     0.16     0.41     9.37     0  01:57        0.41
  WSF200               JUNCTION     0.14     0.30     5.53     0  02:03        0.30
  HS02004901           JUNCTION     0.17     0.39    10.21     0  01:55        0.39
  HS02004881           JUNCTION     0.02     0.06     9.09     0  01:56        0.06
  HS02004876           JUNCTION     0.07     0.17     9.20     0  01:56        0.17
  HS02004870           JUNCTION     0.03     0.10     9.39     0  01:57        0.10
  HS02004862           JUNCTION     0.04     0.12     9.50     0  01:57        0.12
  HS02004856           JUNCTION     0.09     0.16     9.58     0  01:57        0.16
  HS02004852           JUNCTION     0.02     0.08     9.59     0  01:57        0.08
  HS02004848           JUNCTION     0.02     0.07     9.67     0  01:57        0.07
  HS02004842           JUNCTION     0.34     0.40     9.67     0  01:57        0.40
  HS02004837           JUNCTION     0.04     0.09     9.67     0  01:57        0.09
  HS02004830           JUNCTION     0.05     0.12     9.59     0  01:58        0.12
  HS02004824           JUNCTION     0.04     0.16     9.56     0  01:57        0.16
  HS02004817           JUNCTION     0.48     0.72     9.57     0  01:57        0.72
  HS02004807           JUNCTION     0.17     0.39     9.56     0  01:57        0.39
  HS02004802           JUNCTION     0.21     0.42     9.55     0  01:57        0.42
  HS02004799           JUNCTION     0.19     0.49     9.70     0  01:56        0.49
  HS02004792           JUNCTION     0.07     0.23     9.76     0  01:56        0.23
  HS02004788           JUNCTION     0.05     0.17    10.07     0  01:56        0.17
  HS02004785           JUNCTION     0.09     0.26    10.16     0  01:56        0.26
  HS02004777           JUNCTION     0.19     0.40    10.20     0  01:56        0.40
  HS02004770           JUNCTION     0.17     0.38    10.21     0  01:56        0.38
  HS02004480           JUNCTION     0.14     0.40     9.65     0  01:56        0.40
  HS02004479           JUNCTION     0.18     0.44     9.65     0  01:56        0.44
  HS02004478           JUNCTION     0.11     0.30     9.53     0  01:57        0.30
  YS02001745           JUNCTION     0.71     0.99     8.50     0  02:46        0.99
  YS02001748           JUNCTION     1.08     1.41     8.49     0  02:47        1.41
  YS02001751           JUNCTION     1.25     1.60     8.48     0  02:50        1.60
  YS02001754           JUNCTION     1.49     1.85     8.46     0  02:51        1.85
  YS02001762           JUNCTION     1.69     2.05     8.45     0  02:48        2.05
  YS02001765           JUNCTION     1.64     2.00     8.45     0  02:47        2.00
  YS02001767           JUNCTION     1.61     1.96     8.44     0  02:47        1.96
  YS02001770           JUNCTION     1.60     1.94     8.44     0  02:45        1.94
  YS02001774           JUNCTION     1.66     1.99     8.41     0  02:45        1.99
  YS02001779           JUNCTION     1.41     1.68     8.37     0  01:45        1.68
  YS02001882           JUNCTION     0.81     1.70     8.41     0  01:51        1.64
  YS02001884           JUNCTION     0.90     1.78     8.40     0  01:51        1.74
  YS02001759           JUNCTION     1.72     2.09     8.45     0  02:50        2.09
  YS02001887           JUNCTION     0.98     1.83     8.37     0  01:51        1.81
  YS02001890           JUNCTION     1.00     1.81     8.32     0  01:51        1.81
  YS02001898           JUNCTION     0.77     1.59     8.33     0  01:51        1.56
  YS02001901           JUNCTION     0.88     1.69     8.30     0  01:51        1.67
  YS02001904           JUNCTION     0.86     1.65     8.28     0  01:51        1.63
  YS02001907           JUNCTION     1.18     1.96     8.25     0  01:51        1.96
  YS02001910           JUNCTION     0.98     1.97     8.48     0  01:52        1.79
  YS02001915           JUNCTION     0.79     1.92     8.63     0  01:52        1.63
  YS02001918           JUNCTION     0.53     1.81     8.88     0  01:52        1.33
  YS02001619           JUNCTION     1.22     1.61     8.54     0  01:45        1.49
  YS02001629           JUNCTION     1.55     1.85     8.40     0  01:45        1.84
  YS02001641           JUNCTION     1.64     1.94     8.37     0  02:20        1.93
  YS02001644           JUNCTION     1.64     1.92     8.35     0  01:46        1.92
  YS02001652           JUNCTION     1.51     2.01     8.60     0  01:50        1.86
  YS02001655           JUNCTION     1.28     1.92     8.77     0  01:50        1.63
  YS02001920           JUNCTION     0.62     2.13     9.13     0  01:52        1.43
  YS02001923           JUNCTION     0.44     2.02     9.28     0  01:52        1.20
  YS02001926           JUNCTION     0.43     1.90     9.35     0  01:52        1.01
  YS02001929           JUNCTION     0.28     1.78     9.47     0  01:52        0.76
  YS02001658           JUNCTION     1.03     1.81     8.95     0  01:50        1.47
  YS02001661           JUNCTION     0.81     1.72     9.13     0  01:50        1.55
  YS02001664           JUNCTION     0.36     0.57     8.50     0  01:50        0.55
  YS02001622           JUNCTION     1.23     1.61     8.52     0  01:45        1.50
  YS02001633           JUNCTION     1.64     1.95     8.41     0  02:21        1.94
  YS02001649           JUNCTION     1.69     2.05     8.44     0  01:50        2.05
  YS02001757           JUNCTION     1.81     2.19     8.45     0  02:54        2.19
  YS02001895           JUNCTION     0.77     1.58     8.33     0  01:51        1.56
  YS02001625           JUNCTION     1.50     1.78     8.38     0  01:45        1.78
  YS02163301           JUNCTION     1.58     1.89     8.40     0  02:21        1.88
  YS02163601           JUNCTION     1.69     1.99     8.39     0  02:21        1.98
  YS02164001           JUNCTION     1.62     1.92     8.38     0  02:20        1.92
  YS02001647           JUNCTION     1.48     1.81     8.42     0  01:50        1.79
  YSB1154              JUNCTION     0.31     0.59     9.65     0  01:56        0.59
  YSB6556              JUNCTION     0.21     0.48     9.65     0  01:56        0.48
  YSB1174              JUNCTION     0.27     0.54     9.65     0  01:56        0.54
  YSB1171              JUNCTION     0.46     0.75     9.65     0  01:56        0.75
  YS02006553           JUNCTION     1.18     2.02     8.30     0  01:51        1.97
  YS02006561           JUNCTION     0.50     1.29     7.95     0  01:51        1.09
  YS02006556           JUNCTION     1.15     2.03     8.34     0  01:51        1.93
  YS02006558           JUNCTION     1.19     2.09     8.36     0  01:51        1.98
  YS02001783           JUNCTION     0.78     1.73     7.87     0  01:51        1.48
  YS02001784           JUNCTION     0.78     1.69     7.76     0  01:51        1.48
  YS02001786           JUNCTION     0.70     1.80     7.83     0  01:50        1.49
  YS02001788           JUNCTION     0.63     1.78     7.76     0  01:50        1.44
  YS02001790           JUNCTION     0.77     1.88     7.53     0  01:50        1.56
  YS02001791           JUNCTION     0.77     1.61     7.08     0  01:50        1.41
  YS02001793           JUNCTION     1.09     1.91     6.74     0  01:50        1.83
  WSC                  OUTFALL      0.15     0.28     0.95     0  02:07        0.28
  3                    OUTFALL      0.00     0.00     7.16     0  00:00        0.00
  4                    OUTFALL      0.00     0.00     7.67     0  00:00        0.00
  5                    OUTFALL      0.00     0.00     4.91     0  00:00        0.00
  JK-storage           STORAGE      3.80     5.80     6.60     0  01:51        5.80
  CC-storage           STORAGE      1.01     1.43     8.43     0  02:59        1.43
  XR-storage           STORAGE      6.76     7.72     5.72     0  02:01        7.72
  
  
  *******************
  Node Inflow Summary
  *******************
  
  -------------------------------------------------------------------------------------------------
                                  Maximum  Maximum                  Lateral       Total        Flow
                                  Lateral    Total  Time of Max      Inflow      Inflow     Balance
                                   Inflow   Inflow   Occurrence      Volume      Volume       Error
  Node                 Type           LPS      LPS  days hr:min    10^6 ltr    10^6 ltr     Percent
  -------------------------------------------------------------------------------------------------
  WS02001211           JUNCTION      7.35    93.35     0  02:05       0.212       0.547       1.460
  WS02001212           JUNCTION      0.00    86.13     0  02:04           0       0.343       0.299
  WS02001213           JUNCTION      0.00    86.43     0  02:04           0       0.351       2.540
  WS02003069           JUNCTION      0.32   500.31     0  02:05     0.00922        4.02       0.138
  WS02003072           JUNCTION      0.00   500.25     0  02:05           0        4.02       0.222
  WS02003073           JUNCTION      1.82   502.02     0  02:06      0.0524        4.06       0.191
  WS02003060           JUNCTION     16.53   586.55     0  02:03       0.476        4.38       0.119
  WS02003066           JUNCTION      0.00   570.00     0  02:03           0        3.88       0.045
  WS02003059           JUNCTION      0.00   111.08     0  01:40           0       0.373       4.855
  WS02003067           JUNCTION      0.00   569.96     0  02:03           0        3.89       0.120
  WS02004401           JUNCTION      0.00   572.23     0  01:59           0           4       0.286
  WS02004402           JUNCTION      0.00   571.87     0  02:00           0        3.99       0.288
  WS02004403           JUNCTION      0.00   571.81     0  02:00           0        3.98       0.277
  WS02004404           JUNCTION      0.16   571.84     0  02:00     0.00467        3.98       0.225
  WS02004406           JUNCTION      0.00   571.91     0  02:00           0        3.95       0.558
  WS02004409           JUNCTION      0.00   571.82     0  02:01           0        3.93       0.102
  WS02004410           JUNCTION      0.00   571.00     0  02:01           0        3.93       0.148
  WS02004411           JUNCTION      0.00   570.44     0  02:02           0        3.92       0.176
  WS02004412           JUNCTION      0.00   570.13     0  02:02           0        3.91       0.226
  WS02004413           JUNCTION      0.00   569.99     0  02:03           0         3.9       0.395
  WS02004405           JUNCTION      0.04   571.87     0  02:00      0.0011        3.97       0.347
  WS02006109           JUNCTION      1.23   544.00     0  01:58      0.0354        3.93       0.289
  WS02006110           JUNCTION      0.00   543.90     0  01:58           0        3.92       0.258
  WS02006111           JUNCTION      0.00   566.63     0  01:57           0         3.9       0.026
  WS02006112           JUNCTION     31.85   578.30     0  01:58       0.133        4.04       0.394
  WS02006113           JUNCTION      0.00   544.01     0  01:58           0        3.91       0.065
  WS02006115           JUNCTION      0.00   578.41     0  01:57           0        4.02       0.242
  WS02006116           JUNCTION      0.00   573.01     0  01:59           0        4.01       0.167
  WS02006230           JUNCTION     10.28   240.52     0  01:57       0.296        1.47       0.493
  WS02006231           JUNCTION      0.00   240.26     0  01:57           0        1.23       0.073
  WS02006232           JUNCTION      0.00   240.04     0  01:58           0        1.22       0.398
  WS02006234           JUNCTION      0.00   240.08     0  01:58           0        1.22       0.021
  WS02006235           JUNCTION      0.00   607.41     0  01:59           0         8.5       0.028
  WS02006238           JUNCTION      0.00   103.43     0  02:02           0        1.74       0.143
  WS02006240           JUNCTION      0.00   103.23     0  02:00           0        1.73       0.237
  WS02006242           JUNCTION      0.00   103.32     0  01:59           0        1.74       0.318
  WS02006243           JUNCTION      0.00   103.39     0  01:59           0        1.74       0.152
  WS02006245           JUNCTION      0.00   103.43     0  01:58           0        1.74       0.235
  WS02006247           JUNCTION      0.00   103.46     0  01:58           0        1.75       0.208
  WS02006248           JUNCTION      0.00   103.48     0  01:57           0        1.75       0.081
  WS02006249           JUNCTION      0.00   103.54     0  01:57           0        1.75       0.308
  WS02006239           JUNCTION      0.00   103.28     0  02:01           0        1.73       0.192
  WS02006251           JUNCTION      0.08   564.82     0  01:57     0.00222        10.1       0.029
  WS02006252           JUNCTION      0.00   400.00     0  01:31           0        9.36       0.006
  WS02006253           JUNCTION      3.90   164.16     0  01:56      0.0151       0.726       0.427
  WS02006256           JUNCTION      0.00   300.00     0  00:00           0        6.54      -0.023
  WS02004138           JUNCTION      0.00   285.00     0  00:00           0        8.21       0.063
  WS02004139           JUNCTION      0.32   378.55     0  02:06     0.00924        8.74       0.077
  WS02004407           JUNCTION      0.00   571.86     0  02:01           0        3.93       0.048
  WS02006228           JUNCTION      0.00   542.81     0  01:58           0         3.9       0.182
  WS02006229           JUNCTION      0.00   772.40     0  01:57           0        4.48       0.164
  WS02006280           JUNCTION      0.00   772.39     0  01:57           0        3.66       0.002
  WS02006284           JUNCTION      0.10   772.27     0  01:57     0.00275        3.66       0.019
  WS02006287           JUNCTION      0.00   772.11     0  01:57           0        3.65       0.020
  WSF200               JUNCTION      0.00   570.01     0  02:03           0        3.88       0.021
  HS02004901           JUNCTION     38.89    38.89     0  01:54       0.162       0.162       1.099
  HS02004881           JUNCTION     15.22   160.59     0  01:56      0.0619       0.711       0.009
  HS02004876           JUNCTION     27.82   145.93     0  01:56        0.12        0.65       0.082
  HS02004870           JUNCTION     28.21   118.40     0  01:56       0.117        0.53       0.021
  HS02004862           JUNCTION     27.61    91.03     0  01:57       0.138       0.413       0.041
  HS02004856           JUNCTION     21.14    63.47     0  01:56      0.0882       0.276       0.523
  HS02004852           JUNCTION      0.00    42.92     0  01:57           0       0.188       0.029
  HS02004848           JUNCTION     61.11    61.11     0  01:59       0.312       0.312       0.017
  HS02004842           JUNCTION      0.00    19.71     0  02:09           0       0.137      10.522
  HS02004837           JUNCTION     54.03    71.06     0  01:57       0.386        0.51       0.161
  HS02004830           JUNCTION      0.15    71.18     0  01:57     0.00432         0.5       0.247
  HS02004824           JUNCTION     71.90   143.04     0  02:00       0.372       0.871       0.063
  HS02004817           JUNCTION      0.60   145.11     0  02:01      0.0173       0.888       1.912
  HS02004807           JUNCTION     51.98   193.96     0  01:57       0.214        1.09       0.402
  HS02004802           JUNCTION      0.00   193.69     0  01:59           0        1.09       0.362
  HS02004799           JUNCTION     41.67   494.09     0  01:56       0.174        2.23       0.135
  HS02004792           JUNCTION    192.82   453.08     0  01:56       0.877        2.05       0.021
  HS02004788           JUNCTION     62.37   261.00     0  01:56       0.316        1.18       0.034
  HS02004785           JUNCTION      0.15   198.86     0  01:56     0.00432       0.861       0.058
  HS02004777           JUNCTION      0.03   198.92     0  01:55    0.000864       0.861       0.608
  HS02004770           JUNCTION    160.90   199.38     0  01:55       0.702       0.863       0.359
  HS02004480           JUNCTION      0.00   580.41     0  01:56           0        2.59       0.035
  HS02004479           JUNCTION      0.00    86.45     0  01:56           0       0.375       0.197
  HS02004478           JUNCTION      0.00   772.09     0  01:57           0        3.66       0.008
  YS02001745           JUNCTION    527.41   527.41     0  02:34         4.7         4.7       0.158
  YS02001748           JUNCTION      0.04   528.76     0  02:30      0.0013        4.69       0.420
  YS02001751           JUNCTION      0.01   528.89     0  02:30    0.000317        4.67       0.496
  YS02001754           JUNCTION      0.26   529.02     0  02:30     0.00749        4.66       0.514
  YS02001762           JUNCTION      0.00   408.60     0  01:52           0        2.56       0.802
  YS02001765           JUNCTION      0.00   408.51     0  01:52           0        2.56       0.933
  YS02001767           JUNCTION      0.54   408.17     0  01:52      0.0154        2.58       1.380
  YS02001770           JUNCTION    635.59   822.26     0  02:46        5.15        5.89       0.520
  YS02001774           JUNCTION      0.00   822.26     0  02:46           0        4.03       0.609
  YS02001779           JUNCTION      0.01   822.26     0  02:46    0.000144           4       0.367
  YS02001882           JUNCTION      0.00    20.54     0  01:48           0      0.0266       6.388
  YS02001884           JUNCTION      0.00    45.66     0  01:47           0       0.063       8.991
  YS02001759           JUNCTION    614.25   892.25     0  02:00        4.79        6.58       0.337
  YS02001887           JUNCTION    755.42   755.76     0  02:16        5.37         5.4       0.139
  YS02001890           JUNCTION      0.00   756.31     0  02:16           0        5.36       0.154
  YS02001898           JUNCTION      0.00   557.62     0  01:51           0        4.62       0.032
  YS02001901           JUNCTION      0.00   558.24     0  01:51           0        4.62       0.133
  YS02001904           JUNCTION      0.00   558.49     0  01:51           0        4.62       0.102
  YS02001907           JUNCTION      0.00  1229.10     0  01:53           0        11.4       0.187
  YS02001910           JUNCTION      0.00   706.92     0  02:38           0        6.82       0.154
  YS02001915           JUNCTION    456.40   706.88     0  02:38        3.88        6.87       0.079
  YS02001918           JUNCTION      0.00   399.86     0  01:53           0        3.01       0.039
  YS02001619           JUNCTION    455.07   455.07     0  02:32        3.94        3.94       0.298
  YS02001629           JUNCTION      0.00   203.92     0  01:46           0        1.73       1.621
  YS02001641           JUNCTION      0.00   427.46     0  01:46           0        5.48       0.373
  YS02001644           JUNCTION    505.27  1740.34     0  02:44        4.54        14.3       0.173
  YS02001652           JUNCTION      0.00   573.96     0  02:11           0        4.09       0.550
  YS02001655           JUNCTION      0.15   573.14     0  02:11     0.00443        4.12       0.593
  YS02001920           JUNCTION      2.87   399.46     0  01:53      0.0827           3       0.094
  YS02001923           JUNCTION      0.04   399.41     0  01:52     0.00109         2.9       0.041
  YS02001926           JUNCTION      0.05   349.49     0  01:52      0.0015        2.88       0.101
  YS02001929           JUNCTION    261.48   312.10     0  01:52        2.86        2.86       0.016
  YS02001658           JUNCTION      0.00   572.45     0  02:11           0        4.13       0.530
  YS02001661           JUNCTION      0.00   812.16     0  02:01           0        4.14       0.146
  YS02001664           JUNCTION    558.20   558.20     0  02:19        4.14        4.14       0.024
  YS02001622           JUNCTION      0.00   455.07     0  02:32           0        3.93       0.798
  YS02001633           JUNCTION    514.92   514.92     0  02:36        4.68        5.96       0.531
  YS02001649           JUNCTION      0.00   915.56     0  01:57           0        7.83       0.458
  YS02001757           JUNCTION      0.00  2174.59     0  01:59           0        13.9       0.650
  YS02001895           JUNCTION      0.00   556.46     0  01:51           0        4.63       0.104
  YS02001625           JUNCTION      0.00   574.89     0  02:34           0        4.31       0.899
  YS02163301           JUNCTION      0.00   214.96     0  01:45           0        1.73       1.372
  YS02163601           JUNCTION      0.11   424.48     0  01:46     0.00317        5.49       0.539
  YS02164001           JUNCTION      0.00   425.38     0  01:46           0        5.48       0.346
  YS02001647           JUNCTION      0.00   846.70     0  03:01           0        6.44       0.430
  YSB1154              JUNCTION     48.63    48.63     0  01:54        0.21        0.21       0.691
  YSB6556              JUNCTION      0.00    48.39     0  01:55           0       0.211       0.598
  YSB1174              JUNCTION     39.99    39.99     0  01:52       0.157       0.157       0.822
  YSB1171              JUNCTION      0.00    86.80     0  01:55           0       0.374       1.724
  YS02006553           JUNCTION      0.00   692.44     0  03:38           0        7.32       0.189
  YS02006561           JUNCTION      0.00  1075.49     0  01:50           0        12.3       0.001
  YS02006556           JUNCTION      0.00   692.94     0  03:38           0        7.33       0.116
  YS02006558           JUNCTION    664.19  1076.01     0  01:50           5        12.3       0.037
  YS02001783           JUNCTION      0.00  1057.39     0  01:50           0        12.3       0.014
  YS02001784           JUNCTION      1.06  1058.48     0  01:50      0.0305        12.3       0.030
  YS02001786           JUNCTION      0.06  1057.45     0  01:50     0.00162        12.3       0.028
  YS02001788           JUNCTION      0.07  1030.87     0  01:50     0.00204        12.3       0.013
  YS02001790           JUNCTION      0.15  1014.50     0  01:50     0.00446        12.3       0.018
  YS02001791           JUNCTION      0.00  1022.81     0  01:49           0        12.3       0.002
  YS02001793           JUNCTION      0.00   973.71     0  02:16           0        12.3      -0.011
  WSC                  OUTFALL       0.00   501.93     0  02:07           0        4.05       0.000
  3                    OUTFALL       0.00   607.40     0  01:59           0        7.89       0.000
  4                    OUTFALL       0.00   460.80     0  01:57           0        8.33       0.000
  5                    OUTFALL       0.00   378.53     0  02:07           0        8.72       0.000
  JK-storage           STORAGE       0.00   973.52     0  02:10           0        12.5      -0.229
  CC-storage           STORAGE       0.00  2174.15     0  02:00           0        12.2       0.137
  XR-storage           STORAGE    1281.91  1281.91     0  03:01        17.8        18.4      -0.004
  
  
  **********************
  Node Surcharge Summary
  **********************
  
  Surcharging occurs when water rises above the top of the highest conduit.
  ---------------------------------------------------------------------
                                               Max. Height   Min. Depth
                                   Hours       Above Crown    Below Rim
  Node                 Type      Surcharged         Meters       Meters
  ---------------------------------------------------------------------
  WS02006109           JUNCTION        0.86          0.163        1.657
  WS02006110           JUNCTION        0.21          0.018        1.832
  WS02006112           JUNCTION        0.47          0.088        1.592
  WS02006252           JUNCTION        6.49          0.193        0.907
  WS02006256           JUNCTION        6.77          2.050        0.000
  WS02006228           JUNCTION        0.84          0.197        2.003
  HS02004817           JUNCTION        0.26          0.022        1.718
  YS02001748           JUNCTION        5.71          0.332        0.858
  YS02001751           JUNCTION        6.27          0.597        0.603
  YS02001754           JUNCTION        6.32          0.804        0.346
  YS02001762           JUNCTION        6.39          1.050        0.100
  YS02001765           JUNCTION        6.38          0.998        0.102
  YS02001767           JUNCTION        6.37          0.956        0.074
  YS02001770           JUNCTION        6.37          0.915        0.005
  YS02001774           JUNCTION        6.38          0.989        0.061
  YS02001779           JUNCTION        6.32          0.680        0.000
  YS02001882           JUNCTION        2.13          0.698        0.132
  YS02001884           JUNCTION        2.16          0.723        0.147
  YS02001759           JUNCTION        6.40          1.089        0.121
  YS02001887           JUNCTION        2.24          0.782        0.168
  YS02001890           JUNCTION        2.27          0.760        0.000
  YS02001898           JUNCTION        2.10          0.562        0.178
  YS02001901           JUNCTION        2.21          0.693        0.177
  YS02001904           JUNCTION        2.19          0.651        0.199
  YS02001907           JUNCTION        2.67          0.950        0.000
  YS02001910           JUNCTION        2.31          0.974        0.126
  YS02001915           JUNCTION        2.13          0.915        0.085
  YS02001918           JUNCTION        1.90          0.810        0.000
  YS02001619           JUNCTION        6.28          0.610        0.000
  YS02001629           JUNCTION        6.28          0.470        0.000
  YS02001641           JUNCTION        6.38          0.935        0.165
  YS02001644           JUNCTION        6.38          0.920        0.000
  YS02001652           JUNCTION        6.33          0.978        0.152
  YS02001655           JUNCTION        6.29          0.924        0.276
  YS02001920           JUNCTION        1.93          1.126        0.014
  YS02001923           JUNCTION        0.01          0.805        0.015
  YS02001926           JUNCTION        0.01          0.900        0.000
  YS02001929           JUNCTION        0.01          0.780        0.000
  YS02001658           JUNCTION        5.78          0.811        0.489
  YS02001661           JUNCTION        0.64          0.652        0.738
  YS02001622           JUNCTION        6.28          0.615        0.005
  YS02001633           JUNCTION        6.37          0.931        0.129
  YS02001649           JUNCTION        6.39          1.050        0.000
  YS02001757           JUNCTION        6.42          1.187        0.023
  YS02001895           JUNCTION        2.11          0.583        0.167
  YS02001625           JUNCTION        6.35          0.780        0.000
  YS02163301           JUNCTION        6.36          0.885        0.145
  YS02163601           JUNCTION        6.39          0.993        0.087
  YS02164001           JUNCTION        6.37          0.923        0.177
  YS02001647           JUNCTION        6.34          0.810        0.090
  YS02006553           JUNCTION        2.74          1.016        0.174
  YS02006561           JUNCTION        2.00          0.492        0.658
  YS02006556           JUNCTION        2.49          0.991        0.359
  YS02006558           JUNCTION        2.46          0.991        0.409
  YS02001783           JUNCTION        2.48          0.927        0.673
  YS02001784           JUNCTION        2.52          0.895        0.595
  YS02001786           JUNCTION        2.43          1.002        0.428
  YS02001788           JUNCTION        2.42          0.984        0.496
  YS02001790           JUNCTION        3.88          1.083        0.074
  YS02001791           JUNCTION        4.01          0.813        1.107
  YS02001793           JUNCTION        4.20          0.913        1.687
  
  
  *********************
  Node Flooding Summary
  *********************
  
  Flooding refers to all water that overflows a node, whether it ponds or not.
  --------------------------------------------------------------------------
                                                             Total   Maximum
                                 Maximum   Time of Max       Flood    Ponded
                        Hours       Rate    Occurrence      Volume     Depth
  Node                 Flooded       LPS   days hr:min    10^6 ltr    Meters
  --------------------------------------------------------------------------
  WS02006256              5.47    292.86      0  00:00       0.400     0.000
  YS02001779              2.58    822.26      0  02:46       3.987     0.000
  YS02001890              1.24    240.40      0  02:16       0.720     0.000
  YS02001907              1.74    900.94      0  02:28       4.097     0.000
  YS02001918              0.01     81.20      0  01:52       0.000     0.000
  YS02001619              0.01     12.25      0  01:45       0.000     0.000
  YS02001629              0.01     17.04      0  01:45       0.000     0.000
  YS02001644              4.31   1740.34      0  02:44      12.031     0.000
  YS02001926              0.01     28.51      0  01:52       0.000     0.000
  YS02001929              0.01    208.62      0  01:52       0.000     0.000
  YS02001649              0.30     36.44      0  02:52       0.024     0.000
  YS02001625              2.40    574.89      0  02:34       2.967     0.000
  JK-storage              3.56    673.46      0  02:16       5.936     0.000
  XR-storage              5.97    996.90      0  03:01       9.258     0.000
  
  
  **********************
  Storage Volume Summary
  **********************
  
  --------------------------------------------------------------------------------------------------
                         Average     Avg  Evap Exfil       Maximum     Max    Time of Max    Maximum
                          Volume    Pcnt  Pcnt  Pcnt        Volume    Pcnt     Occurrence    Outflow
  Storage Unit           1000 m3    Full  Loss  Loss       1000 m3    Full    days hr:min        LPS
  --------------------------------------------------------------------------------------------------
  JK-storage               0.191      66     0     0         0.291     100       0  01:51     333.34
  CC-storage               2.813      18     0     0         3.972      25       0  02:59     400.00
  XR-storage               0.811      88     0     0         0.926     100       0  02:01     285.00
  
  
  ***********************
  Outfall Loading Summary
  ***********************
  
  ---------------------------------------------------------------------------------------------------------------------------------
                         Flow       Avg       Max       Total         Total         Total         Total         Total         Total
                         Freq      Flow      Flow      Volume           COD            SS            TN            TP         NH4-N
  Outfall Node           Pcnt       LPS       LPS    10^6 ltr            kg            kg            kg            kg            kg
  ---------------------------------------------------------------------------------------------------------------------------------
  WSC                   99.97    179.73    501.93       4.051       575.118      1070.028        24.538         2.650        14.173
  3                     99.97    318.34    607.40       7.893       757.438      1437.420        16.190         1.218         8.060
  4                     99.96    323.82    460.80       8.329       856.349      1650.130        16.813         1.164         8.127
  5                     99.99    309.35    378.53       8.723      1202.324      2058.314        87.362        10.491        53.359
  ---------------------------------------------------------------------------------------------------------------------------------
  System                99.97   1131.24   1919.71      28.996      3391.228      6215.892       144.903        15.523        83.720
  
  
  ********************
  Link Flow Summary
  ********************
  
  -----------------------------------------------------------------------------
                                 Maximum  Time of Max   Maximum    Max/    Max/
                                  |Flow|   Occurrence   |Veloc|    Full    Full
  Link                 Type          LPS  days hr:min     m/sec    Flow   Depth
  -----------------------------------------------------------------------------
  WS02003066WSF200     CONDUIT    570.01     0  02:03      2.93    0.10    0.23
  WS02006287WS02006284 CONDUIT    772.17     0  01:57      2.48    0.36    0.42
  WS02006284WS02006280 CONDUIT    772.39     0  01:57      2.71    0.32    0.39
  WS02006280WS02006229 CONDUIT    772.40     0  01:57      4.41    0.16    0.27
  WS02006229WS02006228 CONDUIT    542.81     0  01:58      1.08    1.80    1.00
  WS02006256WS02006235 CONDUIT    289.81     0  02:49      4.46    3.07    1.00
  WS02006253WS02006251 CONDUIT    164.21     0  01:56      0.97    0.49    0.45
  WS02006252WS02006251 CONDUIT    400.70     0  01:44      3.19    1.47    1.00
  WS02006251WS02006249 CONDUIT    103.54     0  01:57      0.78    0.30    0.39
  WS02006249WS02006248 CONDUIT    103.48     0  01:57      0.84    0.57    0.36
  WS02006248WS02006247 CONDUIT    103.46     0  01:58      0.84    0.23    0.37
  WS02006247WS02006245 CONDUIT    103.43     0  01:58      0.80    0.82    0.38
  WS02006245WS02006243 CONDUIT    103.39     0  01:59      0.90    0.31    0.34
  WS02006243WS02006242 CONDUIT    103.32     0  01:59      0.81    0.22    0.39
  WS02006242WS02006240 CONDUIT    103.23     0  02:00      0.64    0.41    0.44
  WS02006240WS02006239 CONDUIT    103.28     0  02:01      0.81    0.32    0.39
  WS02006239WS02006238 CONDUIT    103.43     0  02:02      0.80    0.33    0.46
  WS02006238WS02006235 CONDUIT    103.73     0  02:03      1.14    0.23    0.48
  WS02006235WS02006234 CONDUIT    240.00     0  01:58      1.23    2.53    0.51
  WS02006234WS02006232 CONDUIT    240.08     0  01:58      0.82    0.49    0.72
  WS02006232WS02006231 CONDUIT    240.04     0  01:58      0.73    0.50    0.80
  WS02006231WS02006230 CONDUIT    240.26     0  01:57      0.75    3.64    0.78
  WS02006230WS02006229 CONDUIT    230.25     0  01:57      0.60    5.12    1.00
  WS02006228WS02006109 CONDUIT    542.77     0  01:58      1.08    2.37    1.00
  WS02006116WS02004401 CONDUIT    572.23     0  01:59      0.79    0.79    0.87
  WS02006115WS02006116 CONDUIT    573.01     0  01:59      0.97    0.74    0.79
  WS02006113WS02006111 CONDUIT    566.63     0  01:57      2.47    0.68    0.47
  WS02006112WS02006115 CONDUIT    578.41     0  01:57      0.79    0.34    0.89
  WS02006111WS02006112 CONDUIT    547.44     0  01:58      1.52    0.26    0.67
  WS02006110WS02006113 CONDUIT    544.01     0  01:58      1.28    0.49    0.79
  WS02006109WS02006110 CONDUIT    543.90     0  01:58      1.08    1.05    1.00
  WS02004411WS02004412 CONDUIT    570.13     0  02:02      1.03    0.81    0.71
  WS02004401WS02004402 CONDUIT    571.87     0  02:00      0.77    0.69    0.89
  WS02004413WS02003067 CONDUIT    569.96     0  02:03      1.15    0.24    0.60
  WS02004412WS02004413 CONDUIT    569.99     0  02:03      0.97    0.38    0.79
  WS02004410WS02004411 CONDUIT    570.44     0  02:02      0.96    0.78    0.71
  WS02004409WS02004410 CONDUIT    571.00     0  02:01      0.98    0.74    0.70
  WS02004407WS02004409 CONDUIT    571.82     0  02:01      1.47    0.20    0.50
  WS02004406WS02004407 CONDUIT    571.86     0  02:01      1.08    0.26    0.64
  WS02004405WS02004406 CONDUIT    571.91     0  02:00      0.73    1.13    0.98
  WS02004404WS02004405 CONDUIT    571.83     0  02:00      0.73    5.60    0.98
  WS02004403WS02004404 CONDUIT    571.67     0  02:00      0.74    0.41    0.95
  WS02004402WS02004403 CONDUIT    571.81     0  02:00      0.76    0.82    0.91
  WS02004139WS02001211 CONDUIT     93.23     0  02:06      0.56    0.12    0.20
  WS02004138WS02004139 CONDUIT    292.49     0  00:00      3.35    0.06    0.18
  WS02003067WS02003066 CONDUIT    570.00     0  02:03      1.25    0.18    0.42
  WS02001213WS02003059 CONDUIT     86.43     0  02:04      0.25    0.14    0.56
  WS02001212WS02001213 CONDUIT     86.13     0  02:04      0.82    0.13    0.19
  WS02001211WS02001212 CONDUIT     86.01     0  02:05      0.52    0.07    0.27
  WS02003072WS02003073 CONDUIT    500.20     0  02:06      1.39    1.08    0.36
  WS02003069WS02003072 CONDUIT    500.25     0  02:05      1.33    0.24    0.37
  WS02003060WS02003069 CONDUIT    499.99     0  02:05      1.60    0.20    0.32
  WS02003059WS02003060 CONDUIT    111.08     0  01:40      0.57    0.07    0.49
  HS02004901HS02004770 CONDUIT     38.51     0  01:55      0.10    0.14    0.55
  HS02004876HS02004881 CONDUIT    145.95     0  01:57      1.29    1.55    0.16
  HS02004870HS02004876 CONDUIT    118.38     0  01:57      0.87    0.08    0.19
  HS02004842HS02004848 CONDUIT     19.71     0  02:09      0.08    0.01    0.34
  HS02004837HS02004842 CONDUIT     20.14     0  02:10      0.42    0.01    0.36
  HS02004830HS02004837 CONDUIT     71.03     0  01:57      0.68    0.07    0.15
  HS02004824HS02004830 CONDUIT     71.28     0  01:59      0.62    0.09    0.20
  HS02004817HS02004824 CONDUIT    144.51     0  02:01      0.34    0.07    0.61
  HS02004770HS02004777 CONDUIT    198.89     0  01:55      0.51    0.36    0.56
  HS02004799HS02004480 CONDUIT    494.04     0  01:56      1.11    0.62    0.63
  HS02004792HS02004799 CONDUIT    452.98     0  01:56      1.25    0.28    0.52
  HS02004788HS02004792 CONDUIT    260.93     0  01:56      1.31    0.17    0.29
  HS02004785HS02004788 CONDUIT    198.83     0  01:56      0.93    1.50    0.30
  HS02004777HS02004785 CONDUIT    198.71     0  01:56      0.60    0.24    0.47
  HS02004480HS02004478 CONDUIT    580.43     0  01:56      1.61    2.44    0.51
  HS02004479HS02004480 CONDUIT     86.39     0  01:56      0.38    0.08    0.61
  HS02004862HS02004870 CONDUIT     91.03     0  01:57      0.84    0.10    0.15
  HS02004848HS02004852 CONDUIT     42.92     0  01:57      0.55    0.05    0.11
  HS02004856HS02004862 CONDUIT     63.43     0  01:57      0.62    0.06    0.15
  HS02004852HS02004856 CONDUIT     42.98     0  01:58      0.36    0.05    0.17
  HS02004802HS02004478 CONDUIT    194.34     0  02:00      0.54    0.17    0.52
  HS02004478WS02006287 CONDUIT    772.11     0  01:57      2.21    0.22    0.39
  HS02004817HS02004807 CONDUIT    145.34     0  02:00      0.27    0.09    0.78
  HS02004807HS02004802 CONDUIT    193.69     0  01:59      0.48    0.37    0.57
  YS02001759YS02001757 CONDUIT    892.40     0  02:00      1.14    0.63    1.00
  YS02001762YS02001759 CONDUIT    407.97     0  01:52      0.52    0.47    1.00
  YS02001765YS02001762 CONDUIT    408.60     0  01:52      0.52    0.38    1.00
  YS02001770YS02001767 CONDUIT    407.63     0  01:52      0.52    1.61    1.00
  YS02001774YS02001770 CONDUIT    822.26     0  02:46      1.05    0.53    1.00
  YS02001779YS02001774 CONDUIT    822.26     0  02:46      1.05    0.41    1.00
  YS02001649YS02001757 CONDUIT    911.60     0  01:57      1.16    0.55    1.00
  YS02001767YS02001765 CONDUIT    408.51     0  01:52      0.52    0.51    1.00
  YS02006561YS02001783 CONDUIT   1057.39     0  01:50      2.27    0.55    1.00
  YS02001783YS02001784 CONDUIT   1057.42     0  01:50      2.10    1.46    1.00
  YS02001784YS02001785 CONDUIT   1057.39     0  01:50      2.11    2.46    1.00
  YS02001788YS02001790 CONDUIT   1014.35     0  01:50      2.55    0.75    1.00
  YS02001790YS02001791 CONDUIT   1022.81     0  01:49      3.09    1.11    1.00
  YS02001791YS02001793 CONDUIT    973.71     0  02:16      5.97    0.42    1.00
  YS02001910YS02001907 CONDUIT    706.95     0  02:38      0.90    0.40    1.00
  YS02001786YS02001788 CONDUIT   1030.80     0  01:50      2.36    1.99    1.00
  YS02001915YS02001910 CONDUIT    706.92     0  02:38      0.90    0.35    1.00
  YS02001918YS02001915 CONDUIT    400.89     0  01:53      0.51    0.22    1.00
  YS02001923YS02001920 CONDUIT    396.59     0  01:53      0.84    0.18    1.00
  YS02001926YS02001923 CONDUIT    327.01     0  01:53      0.92    0.47    1.00
  YS02001929YS02001926 CONDUIT    302.18     0  01:52      0.99    0.14    1.00
  YS02001920YS02001918 CONDUIT    399.86     0  01:53      0.80    0.39    1.00
  YS02001629YS02163301 CONDUIT    214.96     0  01:45      0.27    0.26    1.00
  YS02001619YS02001622 CONDUIT    455.07     0  02:32      0.73    0.67    1.00
  YS02001622YS02001625 CONDUIT    455.07     0  02:32      0.58    0.24    1.00
  YS02001625YS02001629 CONDUIT    203.92     0  01:46      0.29    0.10    1.00
  YS02163301YS02001633 CONDUIT    216.80     0  01:45      0.28    0.20    1.00
  YS02163601YS02164001 CONDUIT    425.38     0  01:46      0.54    0.38    1.00
  YS02164001YS02001641 CONDUIT    427.46     0  01:46      0.54    0.58    1.00
  YS02001641YS02001644 CONDUIT    430.65     0  01:44      0.55    1.39    1.00
  YS02001647YS02001649 CONDUIT    846.70     0  03:01      1.08    0.45    1.00
  YS02006553YS02006556 CONDUIT    692.94     0  03:38      0.88    0.59    1.00
  YS02006556YS02006558 CONDUIT    694.03     0  03:38      0.88    0.55    1.00
  YSB6556YSB1171       CONDUIT     48.31     0  01:56      0.14    0.05    0.84
  YS02001907YS02006553 CONDUIT    692.44     0  03:38      0.77    0.81    1.00
  YS02006558YS02006561 CONDUIT   1075.49     0  01:50      3.80    2.38    1.00
  YS02001633YS02163601 CONDUIT    424.37     0  01:46      0.54    0.45    1.00
  YS02001644YS02001647 CONDUIT    846.70     0  03:01      1.08    0.50    1.00
  YS02001745YS02001748 CONDUIT    528.72     0  02:30      1.66    0.20    0.99
  YS02001748YS02001751 CONDUIT    528.88     0  02:30      1.22    0.27    1.00
  YS02001751YS02001754 CONDUIT    528.76     0  02:30      1.03    0.25    1.00
  YS02001754YS02001757 CONDUIT    528.82     0  02:30      0.67    0.21    1.00
  YS02001882YS02001884 CONDUIT     20.54     0  01:48      0.17    0.02    1.00
  YS02001884YS02001887 CONDUIT     45.66     0  01:47      0.12    0.06    1.00
  YS02001890YS02001895 CONDUIT    556.46     0  01:51      0.71    0.26    1.00
  YS02001895YS02001898 CONDUIT    557.62     0  01:51      0.71    0.97    1.00
  YS02001898YS02001901 CONDUIT    558.24     0  01:51      0.71    0.36    1.00
  YS02001901YS02001904 CONDUIT    558.49     0  01:51      0.71    0.87    1.00
  YS02001904YS02001907 CONDUIT    556.73     0  01:51      0.71    0.19    1.00
  YS02001887YS02001890 CONDUIT    756.31     0  02:16      0.96    1.29    1.00
  YS02001652YS02001649 CONDUIT    574.98     0  02:11      0.73    0.28    1.00
  YS02001655YS02001652 CONDUIT    573.96     0  02:11      1.10    0.28    1.00
  YS02001658YS02001655 CONDUIT    572.98     0  02:11      1.41    0.24    1.00
  YS02001661YS02001658 CONDUIT    572.45     0  02:11      1.77    0.22    1.00
  YS02001664YS02001661 CONDUIT    812.16     0  02:01      1.69    0.25    0.78
  YSB1154YSB6556       CONDUIT     48.39     0  01:55      0.15    0.09    0.77
  YSB1174YSB1171       CONDUIT     39.28     0  01:53      0.11    0.06    0.88
  YSB1171HS02004479    CONDUIT     86.45     0  01:56      0.54    0.06    0.71
  HS02004881HS02006253 CONDUIT    160.59     0  01:56      2.86    0.03    0.08
  YS02001793JiankangQianchi CONDUIT    973.52     0  02:10     13.01    0.08    1.00
  YS02001757CaochengTiaoxuchi CONDUIT   2174.15     0  02:00      3.74    0.95    1.00
  WSF200WS02003060     CONDUIT    570.02     0  02:03      2.26    0.13    0.27
  1                    CONDUIT    501.93     0  02:07      2.75    0.17    0.28
  CC-Pump-1            PUMP       200.00     0  01:31              1.00
  CC-Pump-2            PUMP       200.00     0  01:31              1.00
  JK-Pump-1            PUMP       300.00     0  00:00              1.00
  JK-Pump-2            PUMP         0.00     0  00:00              0.00
  XR-Pump-1            PUMP        95.00     0  00:00              1.00
  XR-Pump-2            PUMP        95.00     0  00:00              1.00
  XR-Pump-3            PUMP         0.00     0  00:00              0.00
  XR-Pump-4            PUMP        95.00     0  00:00              1.00
  3                    WEIR       460.80     0  01:57                      0.27
  5                    WEIR       607.40     0  01:59                      0.32
  6                    WEIR       378.53     0  02:07                      0.23
  
  
  ***************************
  Flow Classification Summary
  ***************************
  
  -------------------------------------------------------------------------------------
                      Adjusted    ---------- Fraction of Time in Flow Class ---------- 
                       /Actual         Up    Down  Sub   Sup   Up    Down  Norm  Inlet 
  Conduit               Length    Dry  Dry   Dry   Crit  Crit  Crit  Crit  Ltd   Ctrl  
  -------------------------------------------------------------------------------------
  WS02003066WSF200        1.00   0.14  0.00  0.00  0.00  0.86  0.00  0.00  0.75  0.00
  WS02006287WS02006284    1.00   0.05  0.02  0.00  0.45  0.47  0.00  0.00  0.62  0.00
  WS02006284WS02006280    1.00   0.07  0.00  0.00  0.00  0.00  0.00  0.93  0.00  0.00
  WS02006280WS02006229    1.00   0.07  0.00  0.00  0.00  0.00  0.00  0.93  0.00  0.00
  WS02006229WS02006228    1.00   0.00  0.00  0.00  0.99  0.00  0.00  0.01  0.00  0.00
  WS02006256WS02006235    1.00   0.00  0.00  0.00  0.18  0.82  0.00  0.00  0.01  0.00
  WS02006253WS02006251    1.00   0.03  0.03  0.00  0.88  0.00  0.06  0.00  0.00  0.00
  WS02006252WS02006251    1.00   0.11  0.00  0.00  0.00  0.00  0.89  0.00  0.00  0.00
  WS02006251WS02006249    1.00   0.00  0.00  0.00  1.00  0.00  0.00  0.00  0.15  0.00
  WS02006249WS02006248    1.00   0.00  0.07  0.00  0.87  0.00  0.05  0.00  0.00  0.00
  WS02006248WS02006247    1.00   0.07  0.00  0.00  0.91  0.00  0.00  0.02  0.01  0.00
  WS02006247WS02006245    1.00   0.08  0.00  0.00  0.89  0.00  0.00  0.04  0.00  0.00
  WS02006245WS02006243    1.00   0.08  0.00  0.00  0.87  0.00  0.00  0.05  0.00  0.00
  WS02006243WS02006242    1.00   0.01  0.07  0.00  0.90  0.00  0.00  0.02  0.65  0.00
  WS02006242WS02006240    1.00   0.00  0.01  0.00  0.95  0.00  0.04  0.00  0.01  0.00
  WS02006240WS02006239    1.00   0.00  0.00  0.00  0.91  0.00  0.00  0.08  0.00  0.00
  WS02006239WS02006238    1.00   0.00  0.00  0.00  1.00  0.00  0.00  0.00  0.05  0.00
  WS02006238WS02006235    1.00   0.00  0.00  0.00  1.00  0.00  0.00  0.00  0.00  0.00
  WS02006235WS02006234    1.00   0.06  0.00  0.00  0.90  0.00  0.02  0.02  0.00  0.00
  WS02006234WS02006232    1.00   0.00  0.00  0.00  1.00  0.00  0.00  0.00  0.09  0.00
  WS02006232WS02006231    1.00   0.00  0.00  0.00  0.99  0.00  0.00  0.00  0.01  0.00
  WS02006231WS02006230    1.00   0.00  0.00  0.00  0.39  0.00  0.61  0.00  0.00  0.00
  WS02006230WS02006229    1.00   0.00  0.00  0.00  0.98  0.00  0.00  0.02  0.03  0.00
  WS02006228WS02006109    1.00   0.00  0.00  0.00  1.00  0.00  0.00  0.00  0.00  0.00
  WS02006116WS02004401    1.00   0.04  0.00  0.00  0.96  0.00  0.00  0.00  0.01  0.00
  WS02006115WS02006116    1.00   0.04  0.00  0.00  0.91  0.00  0.00  0.05  0.00  0.00
  WS02006113WS02006111    1.00   0.02  0.00  0.00  0.01  0.97  0.00  0.00  0.09  0.00
  WS02006112WS02006115    1.00   0.03  0.02  0.00  0.96  0.00  0.00  0.00  0.00  0.00
  WS02006111WS02006112    1.00   0.03  0.00  0.00  0.97  0.00  0.00  0.00  0.95  0.00
  WS02006110WS02006113    1.00   0.01  0.01  0.00  0.98  0.00  0.00  0.00  0.00  0.00
  WS02006109WS02006110    1.00   0.00  0.01  0.00  0.98  0.00  0.01  0.00  0.00  0.00
  WS02004411WS02004412    1.00   0.11  0.00  0.00  0.89  0.00  0.00  0.00  0.00  0.00
  WS02004401WS02004402    1.00   0.04  0.00  0.00  0.96  0.00  0.00  0.00  0.04  0.00
  WS02004413WS02003067    1.00   0.11  0.02  0.00  0.00  0.00  0.87  0.00  0.00  0.00
  WS02004412WS02004413    1.00   0.11  0.00  0.00  0.89  0.01  0.00  0.00  0.00  0.00
  WS02004410WS02004411    1.00   0.10  0.00  0.00  0.89  0.00  0.00  0.00  0.00  0.00
  WS02004409WS02004410    1.00   0.10  0.00  0.00  0.90  0.00  0.00  0.00  0.00  0.00
  WS02004407WS02004409    1.00   0.10  0.00  0.00  0.87  0.02  0.00  0.00  0.82  0.00
  WS02004406WS02004407    1.00   0.00  0.10  0.00  0.90  0.00  0.00  0.00  0.00  0.00
  WS02004405WS02004406    1.00   0.00  0.00  0.00  1.00  0.00  0.00  0.00  0.04  0.00
  WS02004404WS02004405    1.00   0.00  0.00  0.00  1.00  0.00  0.00  0.00  0.00  0.00
  WS02004403WS02004404    1.00   0.00  0.04  0.00  0.96  0.00  0.00  0.00  0.04  0.00
  WS02004402WS02004403    1.00   0.04  0.00  0.00  0.96  0.00  0.00  0.00  0.00  0.00
  WS02004139WS02001211    1.00   0.00  0.00  0.00  1.00  0.00  0.00  0.00  0.00  0.00
  WS02004138WS02004139    1.00   0.00  0.00  0.00  0.00  0.22  0.00  0.78  0.13  0.00
  WS02003067WS02003066    1.00   0.13  0.00  0.00  0.86  0.00  0.00  0.00  0.00  0.00
  WS02001213WS02003059    1.00   0.00  0.00  0.00  0.99  0.00  0.00  0.00  0.00  0.00
  WS02001212WS02001213    1.00   0.01  0.00  0.00  0.50  0.00  0.49  0.00  0.01  0.00
  WS02001211WS02001212    1.00   0.00  0.01  0.00  0.99  0.00  0.00  0.00  0.24  0.00
  WS02003072WS02003073    1.00   0.00  0.00  0.00  0.00  0.00  0.00  1.00  0.00  0.00
  WS02003069WS02003072    1.00   0.00  0.00  0.00  1.00  0.00  0.00  0.00  0.86  0.00
  WS02003060WS02003069    1.00   0.00  0.00  0.00  0.97  0.03  0.00  0.00  0.79  0.00
  WS02003059WS02003060    1.00   0.00  0.00  0.00  1.00  0.00  0.00  0.00  0.08  0.00
  HS02004901HS02004770    1.00   0.06  0.00  0.00  0.94  0.00  0.00  0.00  0.00  0.00
  HS02004876HS02004881    1.00   0.02  0.00  0.00  0.67  0.31  0.00  0.00  0.00  0.00
  HS02004870HS02004876    1.00   0.00  0.00  0.00  0.99  0.00  0.00  0.00  0.95  0.00
  HS02004842HS02004848    1.00   0.00  0.06  0.00  0.93  0.00  0.00  0.00  0.56  0.00
  HS02004837HS02004842    1.00   0.00  0.00  0.00  1.00  0.00  0.00  0.00  0.11  0.00
  HS02004830HS02004837    1.00   0.00  0.00  0.00  1.00  0.00  0.00  0.00  0.99  0.00
  HS02004824HS02004830    1.00   0.00  0.00  0.00  1.00  0.00  0.00  0.00  0.03  0.00
  HS02004817HS02004824    1.00   0.00  0.00  0.00  1.00  0.00  0.00  0.00  0.90  0.00
  HS02004770HS02004777    1.00   0.00  0.06  0.00  0.94  0.00  0.00  0.00  0.01  0.00
  HS02004799HS02004480    1.00   0.00  0.02  0.00  0.92  0.00  0.05  0.00  0.00  0.00
  HS02004792HS02004799    1.00   0.00  0.00  0.00  0.99  0.01  0.00  0.00  0.98  0.00
  HS02004788HS02004792    1.00   0.00  0.00  0.00  0.99  0.01  0.00  0.00  0.98  0.00
  HS02004785HS02004788    1.00   0.00  0.00  0.00  1.00  0.00  0.00  0.00  0.00  0.00
  HS02004777HS02004785    1.00   0.00  0.00  0.00  1.00  0.00  0.00  0.00  0.10  0.00
  HS02004480HS02004478    1.00   0.07  0.00  0.00  0.50  0.00  0.00  0.44  0.00  0.00
  HS02004479HS02004480    1.00   0.02  0.00  0.00  0.98  0.00  0.00  0.00  0.10  0.00
  HS02004862HS02004870    1.00   0.00  0.00  0.00  1.00  0.00  0.00  0.00  0.02  0.00
  HS02004848HS02004852    1.00   0.07  0.00  0.00  0.93  0.00  0.00  0.00  0.79  0.00
  HS02004856HS02004862    1.00   0.00  0.08  0.00  0.92  0.00  0.00  0.00  0.85  0.00
  HS02004852HS02004856    1.00   0.06  0.00  0.00  0.93  0.00  0.00  0.00  0.74  0.00
  HS02004802HS02004478    1.00   0.07  0.00  0.00  0.93  0.00  0.00  0.00  0.02  0.00
  HS02004478WS02006287    1.00   0.08  0.00  0.00  0.54  0.38  0.00  0.00  0.62  0.00
  HS02004817HS02004807    1.00   0.00  0.07  0.00  0.93  0.00  0.00  0.00  0.01  0.00
  HS02004807HS02004802    1.00   0.07  0.00  0.00  0.93  0.00  0.00  0.01  0.00  0.00
  YS02001759YS02001757    1.00   0.00  0.00  0.00  1.00  0.00  0.00  0.00  0.15  0.00
  YS02001762YS02001759    1.00   0.00  0.00  0.00  1.00  0.00  0.00  0.00  0.02  0.00
  YS02001765YS02001762    1.00   0.00  0.00  0.00  1.00  0.00  0.00  0.00  0.12  0.00
  YS02001770YS02001767    1.00   0.00  0.00  0.00  1.00  0.00  0.00  0.00  0.00  0.00
  YS02001774YS02001770    1.00   0.00  0.07  0.00  0.93  0.00  0.00  0.00  0.01  0.00
  YS02001779YS02001774    1.00   0.00  0.00  0.00  1.00  0.00  0.00  0.00  0.16  0.00
  YS02001649YS02001757    1.00   0.00  0.00  0.00  1.00  0.00  0.00  0.00  0.15  0.00
  YS02001767YS02001765    1.00   0.00  0.00  0.00  1.00  0.00  0.00  0.00  0.00  0.00
  YS02006561YS02001783    1.00   0.08  0.00  0.00  0.59  0.33  0.00  0.00  0.49  0.00
  YS02001783YS02001784    1.00   0.00  0.08  0.00  0.92  0.00  0.00  0.00  0.00  0.00
  YS02001784YS02001785    1.00   0.00  0.00  0.00  1.00  0.00  0.00  0.00  0.15  0.00
  YS02001788YS02001790    1.00   0.00  0.00  0.00  0.68  0.32  0.00  0.00  0.40  0.00
  YS02001790YS02001791    1.00   0.00  0.00  0.00  0.61  0.39  0.00  0.00  0.28  0.00
  YS02001791YS02001793    1.00   0.00  0.00  0.00  0.62  0.38  0.00  0.00  0.02  0.00
  YS02001910YS02001907    1.00   0.00  0.00  0.00  0.98  0.00  0.00  0.02  0.11  0.00
  YS02001786YS02001788    1.00   0.00  0.00  0.00  0.68  0.32  0.00  0.00  0.00  0.00
  YS02001915YS02001910    1.00   0.00  0.00  0.00  0.98  0.02  0.00  0.00  0.13  0.00
  YS02001918YS02001915    1.00   0.00  0.00  0.00  0.98  0.01  0.00  0.00  0.49  0.00
  YS02001923YS02001920    1.00   0.00  0.00  0.00  1.00  0.00  0.00  0.00  0.70  0.00
  YS02001926YS02001923    1.00   0.00  0.04  0.00  0.36  0.00  0.60  0.00  0.00  0.00
  YS02001929YS02001926    1.00   0.00  0.06  0.00  0.94  0.00  0.00  0.00  0.62  0.00
  YS02001920YS02001918    1.00   0.00  0.00  0.00  1.00  0.00  0.00  0.00  0.00  0.00
  YS02001629YS02163301    1.00   0.07  0.00  0.00  0.92  0.00  0.00  0.00  0.00  0.00
  YS02001619YS02001622    1.00   0.06  0.00  0.00  0.94  0.00  0.00  0.00  0.00  0.00
  YS02001622YS02001625    1.00   0.07  0.00  0.00  0.93  0.00  0.00  0.00  0.03  0.00
  YS02001625YS02001629    1.00   0.07  0.02  0.00  0.89  0.00  0.02  0.00  0.00  0.00
  YS02163301YS02001633    1.00   0.00  0.07  0.00  0.93  0.00  0.00  0.00  0.00  0.00
  YS02163601YS02164001    1.00   0.00  0.04  0.00  0.96  0.00  0.00  0.00  0.00  0.00
  YS02164001YS02001641    1.00   0.01  0.04  0.00  0.95  0.00  0.00  0.00  0.05  0.00
  YS02001641YS02001644    1.00   0.00  0.00  0.00  1.00  0.00  0.00  0.00  0.00  0.00
  YS02001647YS02001649    1.00   0.00  0.08  0.00  0.92  0.00  0.00  0.00  0.01  0.00
  YS02006553YS02006556    1.00   0.01  0.00  0.00  0.99  0.00  0.00  0.00  0.03  0.00
  YS02006556YS02006558    1.00   0.00  0.00  0.00  1.00  0.00  0.00  0.00  0.00  0.00
  YSB6556YSB1171          1.00   0.03  0.04  0.00  0.94  0.00  0.00  0.00  0.00  0.00
  YS02001907YS02006553    1.00   0.00  0.02  0.00  0.98  0.00  0.00  0.00  0.00  0.00
  YS02006558YS02006561    1.00   0.08  0.00  0.00  0.38  0.54  0.00  0.00  0.44  0.00
  YS02001633YS02163601    1.00   0.00  0.01  0.00  0.99  0.00  0.00  0.00  0.14  0.00
  YS02001644YS02001647    1.00   0.00  0.08  0.00  0.92  0.00  0.00  0.00  0.00  0.00
  YS02001745YS02001748    1.00   0.00  0.00  0.00  0.86  0.01  0.00  0.14  0.01  0.00
  YS02001748YS02001751    1.00   0.00  0.00  0.00  0.96  0.04  0.00  0.00  0.13  0.00
  YS02001751YS02001754    1.00   0.00  0.00  0.00  0.91  0.00  0.00  0.09  0.01  0.00
  YS02001754YS02001757    1.00   0.00  0.00  0.00  1.00  0.00  0.00  0.00  0.16  0.00
  YS02001882YS02001884    1.00   0.07  0.00  0.00  0.93  0.00  0.00  0.00  0.00  0.00
  YS02001884YS02001887    1.00   0.03  0.02  0.00  0.94  0.00  0.00  0.00  0.00  0.00
  YS02001890YS02001895    1.00   0.00  0.07  0.00  0.93  0.00  0.00  0.00  0.00  0.00
  YS02001895YS02001898    1.00   0.08  0.00  0.00  0.91  0.00  0.01  0.00  0.00  0.00
  YS02001898YS02001901    1.00   0.08  0.00  0.00  0.92  0.00  0.00  0.00  0.01  0.00
  YS02001901YS02001904    1.00   0.08  0.00  0.00  0.92  0.00  0.00  0.00  0.00  0.00
  YS02001904YS02001907    1.00   0.00  0.07  0.00  0.92  0.00  0.00  0.00  0.00  0.00
  YS02001887YS02001890    1.00   0.00  0.00  0.00  0.98  0.00  0.02  0.00  0.00  0.00
  YS02001652YS02001649    1.00   0.00  0.00  0.00  1.00  0.00  0.00  0.00  0.14  0.00
  YS02001655YS02001652    1.00   0.00  0.00  0.00  0.91  0.00  0.00  0.09  0.01  0.00
  YS02001658YS02001655    1.00   0.00  0.07  0.00  0.89  0.04  0.00  0.00  0.02  0.00
  YS02001661YS02001658    1.00   0.07  0.00  0.00  0.86  0.07  0.00  0.00  0.01  0.00
  YS02001664YS02001661    1.00   0.06  0.00  0.00  0.87  0.07  0.00  0.00  0.09  0.00
  YSB1154YSB6556          1.00   0.06  0.00  0.00  0.94  0.00  0.00  0.00  0.01  0.00
  YSB1174YSB1171          1.00   0.03  0.02  0.00  0.95  0.00  0.00  0.00  0.00  0.00
  YSB1171HS02004479       1.00   0.03  0.00  0.00  0.97  0.00  0.00  0.01  0.09  0.00
  HS02004881HS02006253    1.00   0.03  0.00  0.00  0.00  0.00  0.00  0.97  0.00  0.00
  YS02001793JiankangQianchi    1.00   0.00  0.00  0.00  0.72  0.27  0.00  0.00  0.12  0.00
  YS02001757CaochengTiaoxuchi    1.00   0.00  0.11  0.00  0.81  0.08  0.00  0.00  0.00  0.00
  WSF200WS02003060        1.00   0.00  0.14  0.00  0.00  0.86  0.00  0.00  0.58  0.00
  1                       1.00   0.00  0.00  0.00  0.00  1.00  0.00  0.00  0.29  0.00
  
  
  *************************
  Conduit Surcharge Summary
  *************************
  
  ----------------------------------------------------------------------------
                                                           Hours        Hours 
                         --------- Hours Full --------   Above Full   Capacity
  Conduit                Both Ends  Upstream  Dnstream   Normal Flow   Limited
  ----------------------------------------------------------------------------
  WS02006229WS02006228        0.84      0.88      0.84      1.55         0.84
  WS02006256WS02006235        0.34      0.34      6.76      6.74         0.01
  WS02006252WS02006251        6.48      6.48      6.49      6.49         0.01
  WS02006235WS02006234        0.01      0.01      0.01      0.79         0.01
  WS02006231WS02006230        0.01      0.01      0.01      1.00         0.01
  WS02006230WS02006229        1.15      1.15      1.16      3.80         0.01
  WS02006228WS02006109        0.86      1.01      0.86      1.79         0.86
  WS02006112WS02006115        0.01      0.01      0.47      0.01         0.01
  WS02006111WS02006112        0.01      0.01      1.60      0.01         0.01
  WS02006110WS02006113        0.01      0.01      0.93      0.01         0.01
  WS02006109WS02006110        0.21      0.21      1.01      0.21         0.01
  WS02004405WS02004406        0.01      0.01      0.01      0.40         0.01
  WS02004404WS02004405        0.01      0.01      0.01      2.42         0.01
  WS02003072WS02003073        0.01      0.01      0.01      0.33         0.01
  HS02004876HS02004881        0.01      0.01      0.01      0.73         0.01
  HS02004817HS02004824        0.01      0.01      0.26      0.01         0.01
  HS02004785HS02004788        0.01      0.01      0.01      0.67         0.01
  HS02004480HS02004478        0.01      0.01      0.01      1.49         0.01
  HS02004817HS02004807        0.01      0.01      0.26      0.01         0.01
  YS02001759YS02001757        6.40      6.40      6.42      0.01         0.01
  YS02001762YS02001759        6.39      6.39      6.40      0.01         0.01
  YS02001765YS02001762        6.38      6.38      6.39      0.01         0.01
  YS02001770YS02001767        6.37      6.37      6.37      0.39         0.38
  YS02001774YS02001770        6.37      6.37      6.38      0.01         0.01
  YS02001779YS02001774        6.32      6.32      6.38      0.01         0.01
[...]
  YS02006561YS02001783        2.00      2.00      2.48      0.01         0.01
  YS02001783YS02001784        2.47      2.48      2.52      2.41         2.29
  YS02001784YS02001785        2.43      2.52      2.43      3.15         2.43
  YS02001788YS02001790        2.42      2.42      3.88      0.01         0.01
  YS02001790YS02001791        3.88      3.88      4.01      1.90         1.86
  YS02001791YS02001793        4.01      4.01      4.27      0.01         0.01
  YS02001910YS02001907        2.31      2.31      2.67      0.01         0.01
  YS02001786YS02001788        2.42      2.43      2.42      2.78         2.42
  YS02001915YS02001910        2.13      2.13      2.31      0.01         0.01
  YS02001918YS02001915        1.90      1.90      2.13      0.01         0.01
  YS02001923YS02001920        1.71      1.71      1.93      0.01         0.01
  YS02001926YS02001923        0.01      0.01      0.01      0.01         0.01
  YS02001929YS02001926        0.01      0.01      0.01      0.01         0.01
  YS02001920YS02001918        1.90      1.90      1.93      0.01         0.01
  YS02001629YS02163301        6.36      6.36      6.36      0.01         0.01
  YS02001619YS02001622        6.28      6.28      6.28      0.01         0.02
  YS02001622YS02001625        6.28      6.28      6.35      0.01         0.01
  YS02001625YS02001629        6.28      6.28      6.35      0.01         0.01
  YS02163301YS02001633        6.36      6.36      6.37      0.01         0.01
  YS02163601YS02164001        6.37      6.37      6.39      0.01         0.01
  YS02164001YS02001641        6.37      6.37      6.38      0.01         0.01
  YS02001641YS02001644        6.38      6.38      6.38      2.64         2.45
  YS02001647YS02001649        6.34      6.34      6.39      0.01         0.01
  YS02006553YS02006556        2.49      2.49      2.74      0.01         0.01
  YS02006556YS02006558        2.56      2.56      2.80      0.01         0.01
  YSB6556YSB1171              0.01      0.01      0.40      0.01         0.01
  YS02001907YS02006553        3.19      3.19      3.41      0.01         0.01
  YS02006558YS02006561        2.16      2.46      2.16      3.02         2.16
  YS02001633YS02163601        6.37      6.37      6.39      0.01         0.01
  YS02001644YS02001647        6.34      6.34      6.38      0.01         0.01
  YS02001745YS02001748        0.01      0.01      5.70      0.01         0.01
  YS02001748YS02001751        6.06      6.06      6.27      0.01         0.01
  YS02001751YS02001754        6.27      6.27      6.32      0.01         0.01
  YS02001754YS02001757        6.33      6.33      6.42      0.01         0.01
  YS02001882YS02001884        2.13      2.13      2.16      0.01         0.01
  YS02001884YS02001887        2.21      2.21      2.24      0.01         0.01
  YS02001890YS02001895        2.11      2.11      2.32      0.01         0.01
  YS02001895YS02001898        2.10      2.10      2.11      0.01         0.01
  YS02001898YS02001901        2.11      2.11      2.21      0.01         0.01
  YS02001901YS02001904        2.19      2.19      2.21      0.01         0.01
  YS02001904YS02001907        2.19      2.19      2.76      0.01         0.01
  YS02001887YS02001890        2.27      2.27      2.29      1.12         0.01
  YS02001652YS02001649        6.34      6.34      6.39      0.01         0.01
  YS02001655YS02001652        6.29      6.29      6.33      0.01         0.01
  YS02001658YS02001655        5.78      5.78      6.29      0.01         0.01
  YS02001661YS02001658        0.63      0.63      5.78      0.01         0.01
  YS02001664YS02001661        0.01      0.01      1.31      0.01         0.01
  YS02001793JiankangQianchi        4.20      4.20      5.12      0.01         0.01
  YS02001757CaochengTiaoxuchi        5.80      5.80      6.42      0.01         0.01
  
  
  ***************
  Pumping Summary
  ***************
  
  ---------------------------------------------------------------------------------------------------------
                                                  Min       Avg       Max     Total     Power    % Time Off
                        Percent   Number of      Flow      Flow      Flow    Volume     Usage    Pump Curve
  Pump                 Utilized   Start-Ups       LPS       LPS       LPS  10^6 ltr     Kw-hr    Low   High
  ---------------------------------------------------------------------------------------------------------
  CC-Pump-1               81.67           1      0.00    197.94    200.00     4.681      8.02    0.0    6.0
  CC-Pump-2               81.67           1      0.00    197.94    200.00     4.681      8.02    0.0    6.0
  JK-Pump-1              100.00           1      0.00    249.54    300.00     6.541     68.72    0.0    0.0
  JK-Pump-2                0.00           0      0.00      0.00      0.00     0.000      0.00    0.0    0.0
  XR-Pump-1              100.00           1      0.00     95.00     95.00     2.736     20.85    0.0    0.0
  XR-Pump-2              100.00           1      0.00     95.00     95.00     2.736     20.85    0.0    0.0
  XR-Pump-3                0.00           0      0.00      0.00      0.00     0.000      0.00    0.0    0.0
  XR-Pump-4              100.00           1      0.00     95.00     95.00     2.736     20.85    0.0    0.0
  
  
  ***************************
  Link Pollutant Load Summary
  ***************************
  
  ------------------------------------------------------------------------------------------
                                 COD            SS            TN            TP         NH4-N
  Link                            kg            kg            kg            kg            kg
  ------------------------------------------------------------------------------------------
  WS02003066WSF200           497.288       963.775        13.695         1.251         7.273
  WS02006287WS02006284       523.487      1027.065        14.414         1.322         7.660
  WS02006284WS02006280       523.964      1027.807        14.461         1.328         7.690
  WS02006280WS02006229       523.951      1027.796        14.459         1.328         7.689
  WS02006229WS02006228       480.491       929.129        13.543         1.247         7.229
  WS02006256WS02006235       536.461       996.005        11.829         0.901         5.941
  WS02006253WS02006251        91.953       186.653         1.900         0.136         0.922
  WS02006252WS02006251       944.689      1811.199        18.406         1.267         8.886
  WS02006251WS02006249       180.556       348.113         3.540         0.245         1.711
  WS02006249WS02006248       180.224       347.496         3.532         0.244         1.707
  WS02006248WS02006247       180.080       347.253         3.529         0.244         1.705
  WS02006247WS02006245       179.826       346.791         3.523         0.244         1.702
  WS02006245WS02006243       179.517       346.227         3.517         0.243         1.699
  WS02006243WS02006242       179.218       345.702         3.510         0.243         1.696
  WS02006242WS02006240       178.833       345.014         3.502         0.242         1.692
  WS02006240WS02006239       178.498       344.397         3.495         0.242         1.688
  WS02006239WS02006238       178.157       343.766         3.488         0.241         1.685
  WS02006238WS02006235       178.199       343.852         3.489         0.241         1.686
  WS02006235WS02006234       135.467       265.354         2.972         0.234         1.488
  WS02006234WS02006232       136.109       266.586         2.988         0.236         1.496
  WS02006232WS02006231       136.992       268.279         3.010         0.238         1.507
  WS02006231WS02006230       137.592       269.413         3.025         0.239         1.515
  WS02006230WS02006229       139.241       272.565         3.066         0.242         1.536
  WS02006228WS02006109       479.804       928.041        13.479         1.239         7.190
  WS02006116WS02004401       506.068       978.000        14.335         1.327         7.664
  WS02006115WS02006116       506.682       978.947        14.400         1.335         7.705
  WS02006113WS02006111       486.948       939.468        14.174         1.326         7.624
  WS02006112WS02006115       507.309       979.987        14.451         1.342         7.736
  WS02006111WS02006112       486.686       939.070        14.144         1.322         7.606
  WS02006110WS02006113       487.096       939.710        14.187         1.327         7.633
  WS02006109WS02006110       487.769       940.803        14.247         1.335         7.670
  WS02004411WS02004412       499.529       967.354        13.856         1.270         7.371
  WS02004401WS02004402       505.170       976.521        14.265         1.319         7.620
  WS02004413WS02003067       497.960       964.902        13.735         1.255         7.296
  WS02004412WS02004413       498.655       965.948        13.795         1.263         7.334
  WS02004410WS02004411       500.100       968.271        13.897         1.275         7.396
  WS02004409WS02004410       500.507       968.910        13.930         1.279         7.416
  WS02004407WS02004409       500.877       969.502        13.957         1.282         7.433
  WS02004406WS02004407       501.033       969.748        13.969         1.283         7.440
  WS02004405WS02004406       502.733       972.489        14.106         1.300         7.525
  WS02004404WS02004405       503.912       974.431        14.184         1.309         7.572
  WS02004403WS02004404       503.396       973.627        14.123         1.301         7.533
  WS02004402WS02004403       504.237       975.006        14.188         1.309         7.573
  WS02004139WS02001211        97.180       172.478         6.269         0.745         3.806
  WS02004138WS02004139      1103.338      1882.920        80.924         9.725        49.447
  WS02003067WS02003066       497.288       963.756        13.698         1.251         7.274
  WS02001213WS02003059        54.005       103.915         2.007         0.210         1.138
  WS02001212WS02001213        51.978       100.700         1.817         0.187         1.019
  WS02001211WS02001212        52.020       100.383         1.897         0.198         1.072
  WS02003072WS02003073       563.356      1051.512        23.332         2.498        13.416
  WS02003069WS02003072       564.544      1053.289        23.463         2.515        13.499
  WS02003060WS02003069       562.901      1050.648        23.297         2.494        13.395
  WS02003059WS02003060        58.032       111.598         2.126         0.221         1.202
  HS02004901HS02004770        23.752        47.150         0.456         0.035         0.216
  HS02004876HS02004881        78.602       159.500         1.668         0.120         0.812
  HS02004870HS02004876        60.023       121.771         1.319         0.095         0.644
  HS02004842HS02004848        11.483        22.638         0.237         0.016         0.110
  HS02004837HS02004842        16.139        30.046         0.708         0.076         0.406
  HS02004830HS02004837        90.019       162.997         5.107         0.591         3.065
  HS02004824HS02004830        90.833       164.338         5.182         0.601         3.111
  HS02004817HS02004824       134.943       255.340         6.072         0.657         3.543
  HS02004770HS02004777        90.798       182.824         1.867         0.129         0.871
  HS02004799HS02004480       287.519       566.394         6.767         0.567         3.405
  HS02004792HS02004799       262.530       514.760         6.335         0.541         3.205
  HS02004788HS02004792       140.404       276.276         3.856         0.343         2.007
  HS02004785HS02004788        92.225       185.097         2.016         0.148         0.964
  HS02004777HS02004785        91.537       184.003         1.952         0.140         0.925
  HS02004480HS02004478       358.149       708.127         8.017         0.660         4.004
  HS02004479HS02004480        74.267       147.642         1.555         0.130         0.788
  HS02004862HS02004870        46.059        92.349         1.041         0.079         0.510
  HS02004848HS02004852        19.915        39.750         0.404         0.028         0.188
  HS02004856HS02004862        31.842        64.517         0.637         0.043         0.301
  HS02004852HS02004856        19.930        39.775         0.404         0.028         0.188
  HS02004802HS02004478       166.335       320.548         6.465         0.671         3.697
  HS02004478WS02006287       523.630      1027.261        14.431         1.324         7.671
  HS02004817HS02004807       133.680       253.360         5.936         0.640         3.458
  HS02004807HS02004802       166.480       320.771         6.496         0.675         3.717
  YS02001759YS02001757       610.015      1168.047        11.895         0.835         5.796
  YS02001762YS02001759       249.437       472.992         5.159         0.363         2.540
  YS02001765YS02001762       250.471       476.102         5.194         0.366         2.559
  YS02001770YS02001767       253.213       484.712         5.064         0.343         2.464
  YS02001774YS02001770       507.683      1013.233         9.786         0.660         4.738
  YS02001779YS02001774       506.643      1011.224         9.837         0.669         4.777
  YS02001649YS02001757       464.586       864.472         9.258         0.651         4.436
  YS02001767YS02001765       252.263       480.689         5.238         0.369         2.583
  YS02006561YS02001783      1380.332      2625.664        28.531         2.102        14.106
  YS02001783YS02001784      1380.345      2625.746        28.529         2.102        14.105
  YS02001784YS02001785      1388.005      2638.121        29.259         2.193        14.561
  YS02001788YS02001790      1388.870      2639.655        29.337         2.203        14.609
  YS02001790YS02001791      1390.118      2641.810        29.441         2.216        14.674
  YS02001791YS02001793      1390.042      2641.672        29.437         2.215        14.672
  YS02001910YS02001907       712.827      1366.447        15.652         1.139         7.848
  YS02001786YS02001788      1388.374      2638.821        29.290         2.197        14.580
  YS02001915YS02001910       712.572      1365.929        15.605         1.132         7.817
  YS02001918YS02001915       350.598       646.212         8.265         0.695         4.293
  YS02001923YS02001920       325.897       604.294         6.214         0.444         3.024
  YS02001926YS02001923       323.063       599.269         6.096         0.432         2.956
  YS02001929YS02001926       320.883       595.490         5.993         0.421         2.895
  YS02001920YS02001918       347.220       638.966         8.186         0.689         4.254
  YS02001629YS02163301       141.262       260.983         2.839         0.196         1.346
  YS02001619YS02001622       331.399       629.808         6.665         0.447         3.137
  YS02001622YS02001625       330.468       628.368         6.641         0.445         3.126
  YS02001625YS02001629       136.857       252.001         2.767         0.189         1.309
  YS02163301YS02001633       146.483       271.271         2.926         0.203         1.389
  YS02163601YS02164001       598.628      1116.614        11.536         0.840         5.557
  YS02164001YS02001641       598.653      1116.668        11.525         0.839         5.550
  YS02001641YS02001644       599.821      1118.656        11.540         0.839         5.556
  YS02001647YS02001649       628.856      1185.180        12.465         0.884         5.945
  YS02006553YS02006556       777.066      1448.453        16.710         1.265         8.376
  YS02006556YS02006558       777.561      1449.383        16.683         1.260         8.356
  YSB6556YSB1171              43.292        86.237         0.851         0.069         0.425
  YS02001907YS02006553       776.814      1447.987        16.734         1.268         8.393
  YS02006558YS02006561      1380.192      2625.361        28.529         2.102        14.105
  YS02001633YS02163601       599.094      1117.312        11.509         0.835         5.537
  YS02001644YS02001647       635.173      1197.921        12.562         0.891         5.993
  YS02001745YS02001748       448.176       873.049         8.891         0.567         4.289
  YS02001748YS02001751       447.775       872.349         8.919         0.572         4.309
  YS02001751YS02001754       446.941       871.011         8.905         0.572         4.303
  YS02001754YS02001757       447.877       872.462         9.074         0.595         4.413
  YS02001882YS02001884         3.923         6.952         0.075         0.006         0.037
  YS02001884YS02001887         7.417        13.387         0.140         0.011         0.069
  YS02001890YS02001895       689.084      1326.977        12.865         0.976         6.286
  YS02001895YS02001898       689.073      1327.063        12.861         0.976         6.284
  YS02001898YS02001901       689.059      1326.999        12.861         0.976         6.284
  YS02001901YS02001904       689.008      1327.004        12.870         0.977         6.290
  YS02001904YS02001907       689.518      1327.801        12.931         0.985         6.328
  YS02001887YS02001890       832.036      1613.679        15.460         1.175         7.553
  YS02001652YS02001649       416.055       795.567         8.296         0.601         3.904
  YS02001655YS02001652       416.887       796.864         8.319         0.603         3.915
  YS02001658YS02001655       416.632       796.417         8.237         0.592         3.860
  YS02001661YS02001658       417.589       798.000         8.260         0.593         3.870
  YS02001664YS02001661       417.071       796.819         8.254         0.593         3.867
  YSB1154YSB6556              42.892        85.618         0.806         0.063         0.396
  YSB1174YSB1171              29.512        59.094         0.578         0.046         0.286
  YSB1171HS02004479           74.196       147.510         1.561         0.131         0.792
  HS02004881HS02006253        87.918       178.627         1.847         0.132         0.898
  YS02001793JiankangQianchi      1390.160      2641.858        29.439         2.216        14.673
  YS02001757CaochengTiaoxuchi      1155.736      2189.591        22.925         1.579        11.084
  WSF200WS02003060           497.100       963.443        13.687         1.250         7.268
  1                          575.118      1070.028        24.538         2.650        14.173
  CC-Pump-1                  472.367       905.634         9.204         0.633         4.443
  CC-Pump-2                  472.367       905.634         9.204         0.633         4.443
  JK-Pump-1                  573.765      1065.104        12.651         0.963         6.354
  JK-Pump-2                    0.000         0.000         0.000         0.000         0.000
  XR-Pump-1                  368.157       628.268        27.005         3.246        16.501
  XR-Pump-2                  368.157       628.268        27.005         3.246        16.501
  XR-Pump-3                    0.000         0.000         0.000         0.000         0.000
  XR-Pump-4                  368.157       628.268        27.005         3.246        16.501
  3                          856.349      1650.130        16.813         1.164         8.127
  5                          757.438      1437.420        16.190         1.218         8.060
  6                         1202.324      2058.314        87.362        10.491        53.359
  

  Analysis begun on:  Thu Jul  8 15:42:59 2021
  Analysis ended on:  Thu Jul  8 15:43:00 2021
  Total elapsed time: 00:00:01