
  EPA STORM WATER MANAGEMENT MODEL - VERSION 5.1 (Build 5.3.0.dev0)
  --------------------------------------------------------------

  WARNING 04: minimum elevation drop used for Conduit WS02004404WS02004405
  WARNING 03: negative offset ignored for Link YS02001904YS02001907
  
  *********************************************************
  NOTE: The summary statistics displayed in this report are
  based on results found at every computational time step,  
  not just on results from each reporting time step.
  *********************************************************
  
  ****************
  Analysis Options
  ****************
  Flow Units ............... LPS
  Process Models:
    Rainfall/Runoff ........ YES
    RDII ................... NO
    Snowmelt ............... NO
    Groundwater ............ NO
    Flow Routing ........... YES
    Ponding Allowed ........ NO
    Water Quality .......... YES
  Infiltration Method ...... HORTON
  Flow Routing Method ...... DYNWAVE
  Surcharge Method ......... EXTRAN
  Starting Date ............ 08/28/2015 08:00:00
  Ending Date .............. 08/28/2015 16:00:00
  Antecedent Dry Days ...... 8.0
  Report Time Step ......... 00:01:00
  Wet Time Step ............ 00:01:00
  Dry Time Step ............ 00:01:00
  Routing Time Step ........ 5.00 sec
  Variable Time Step ....... YES
  Maximum Trials ........... 8
  Number of Threads ........ 4
  Head Tolerance ........... 0.001500 m
  
  
  **************************        Volume         Depth
  Runoff Quantity Continuity     hectare-m            mm
  **************************     ---------       -------
  Total Precipitation ......         6.931        15.175
  Evaporation Loss .........         0.000         0.000
  Infiltration Loss ........         1.134         2.482
  Surface Runoff ...........         4.853        10.625
  Final Storage ............         0.946         2.071
  Continuity Error (%) .....        -0.017
  
  
  **************************           COD            SS            TN            TP         NH4-N
  Runoff Quality Continuity             kg            kg            kg            kg            kg
  **************************    ----------    ----------    ----------    ----------    ----------
  Initial Buildup ..........     41378.656     70582.865      1804.177       168.684      1032.807
  Surface Buildup ..........        28.184        57.089         2.485         0.224         1.430
  Wet Deposition ...........         0.000         0.000         0.000         0.000         0.000
  Sweeping Removal .........         0.000         0.000         0.000         0.000         0.000
  Infiltration Loss ........       115.883       223.018         2.208         0.156         1.055
  BMP Removal ..............         0.000         0.000         0.000         0.000         0.000
  Surface Runoff ...........      4738.890      9016.401        91.259         6.282        43.466
  Remaining Buildup ........     36550.203     61396.908      1713.157       162.467       989.699
  Continuity Error (%) .....         0.005         0.005         0.002         0.002         0.002
  
  
  **************************        Volume        Volume
  Flow Routing Continuity        hectare-m      10^6 ltr
  **************************     ---------     ---------
  Dry Weather Inflow .......         0.630         6.296
  Wet Weather Inflow .......         4.852        48.518
  Groundwater Inflow .......         0.000         0.000
  RDII Inflow ..............         0.000         0.000
  External Inflow ..........         0.105         1.045
  External Outflow .........         2.235        22.352
  Flooding Loss ............         3.291        32.912
  Evaporation Loss .........         0.000         0.000
  Exfiltration Loss ........         0.000         0.000
  Initial Stored Volume ....         0.076         0.761
  Final Stored Volume ......         0.511         5.112
  Continuity Error (%) .....        -6.636
  
  
  **************************           COD            SS            TN            TP         NH4-N
  Quality Routing Continuity            kg            kg            kg            kg            kg
  **************************    ----------    ----------    ----------    ----------    ----------
  Dry Weather Inflow .......      1573.993      2518.389       151.103        18.888        94.440
  Wet Weather Inflow .......      4738.605      9016.050        91.251         6.282        43.462
  Groundwater Inflow .......         0.000         0.000         0.000         0.000         0.000
  RDII Inflow ..............         0.000         0.000         0.000         0.000         0.000
  External Inflow ..........       187.321       299.713        17.983         2.248        11.239
  External Outflow .........      2073.447      3813.648        80.957         8.459        46.239
  Flooding Loss ............      3587.257      6579.524       147.563        15.758        84.949
  Exfiltration Loss ........         0.000         0.000         0.000         0.000         0.000
  Mass Reacted .............         0.000         0.000         0.000         0.000         0.000
  Initial Stored Mass ......         0.000         0.000         0.000         0.000         0.000
  Final Stored Mass ........       434.921       744.042        20.955         2.281        12.244
  Continuity Error (%) .....         6.220         5.889         4.172         3.355         3.828
  
  
  *************************
  Highest Continuity Errors
  *************************
  Node JK-storage (-32.32%)
  Node HS02004842 (12.05%)
  Node YS02001884 (8.85%)
  Node WS02003059 (6.82%)
  Node HS02004817 (2.29%)
  
  
  ***************************
  Time-Step Critical Elements
  ***************************
  Link YS02001793JiankangQianchi (55.59%)
  Link WS02006280WS02006229 (23.08%)
  Link YS02006556YS02006558 (4.74%)
  Link WS02006252WS02006251 (2.35%)
  Link YS02006558YS02006561 (1.44%)
  
  
  ********************************
  Highest Flow Instability Indexes
  ********************************
  Link WS02006252WS02006251 (49)
  Link YS02163601YS02164001 (46)
  Link YS02001629YS02163301 (43)
  Link YS02001619YS02001622 (43)
  Link YS02163301YS02001633 (43)
  
  
  *************************
  Routing Time Step Summary
  *************************
  Minimum Time Step           :     0.50 sec
  Average Time Step           :     2.07 sec
  Maximum Time Step           :     5.00 sec
  Percent in Steady State     :    -0.00
  Average Iterations per Step :     4.74
  Percent Not Converging      :    27.38
  
  
  ***************************
  Subcatchment Runoff Summary
  ***************************
  
  ------------------------------------------------------------------------------------------------------------------------------
                            Total      Total      Total      Total     Imperv       Perv      Total       Total     Peak  Runoff
                           Precip      Runon       Evap      Infil     Runoff     Runoff     Runoff      Runoff   Runoff   Coeff
  Subcatchment                 mm         mm         mm         mm         mm         mm         mm    10^6 ltr      LPS
  ------------------------------------------------------------------------------------------------------------------------------
  sub0                      15.17       0.00       0.00       0.64      14.07       0.42      14.49        0.01     3.21   0.955
  sub1                      15.17       0.00       0.00       1.12      13.42       0.55      13.97        0.09    22.74   0.920
  sub2                      15.17       0.00       0.00       4.63       9.48       0.98      10.46        0.10    22.43   0.689
  sub3                      15.17       0.00       0.00       4.81       9.44       0.81      10.25        0.23    50.35   0.675
  sub4                      15.17       0.00       0.00       1.24      13.26       0.43      13.69        0.29    59.98   0.902
  sub5                      15.17       0.00       0.00       0.68      14.02       0.38      14.40        0.16    39.78   0.949
  sub7                      15.17       0.00       0.00       0.86      13.75       0.50      14.25        0.05    12.44   0.939
  sub8                      15.17       0.00       0.00       0.88      13.74       0.49      14.23        0.09    23.06   0.938
  sub9                      15.17       0.00       0.00       0.88      13.74       0.49      14.22        0.07    17.28   0.937
  sub10                     15.17       0.00       0.00       0.78      13.87       0.43      14.31        0.16    38.95   0.943
  sub11                     15.17       0.00       0.00       0.77      13.89       0.45      14.34        0.17    42.47   0.945
  sub12                     15.17       0.00       0.00       1.25      13.15       0.72      13.88        0.12    32.74   0.915
  sub14                     15.17       0.00       0.00       0.88      13.73       0.49      14.22        0.14    34.05   0.937
  sub15                     15.17       0.00       0.00       3.43      10.56       1.12      11.68        0.20    49.54   0.770
  sub16                     15.17       0.00       0.00       3.59      10.13       1.42      11.55        0.12    31.81   0.761
  sub17                     15.17       0.00       0.00       3.50      10.28       1.36      11.64        0.10    26.04   0.767
  sub22                     15.17       0.00       0.00       5.11       8.61       1.41      10.02        0.63   157.18   0.660
  sub23                     15.17       0.00       0.00       4.24       9.52       1.38      10.89        0.52   131.42   0.718
  sub60                     15.17       0.00       0.00       1.64      11.41       0.18      11.59        3.51   455.25   0.764
  sub61                     15.17       0.00       0.00       2.33      11.43       0.25      11.68        3.60   529.80   0.770
  sub62                     15.17       0.00       0.00       1.02      12.48       0.19      12.67        3.89   550.57   0.835
  sub63                     15.17       0.00       0.00       4.11       9.95       0.29      10.24        3.10   479.64   0.675
  sub64                     15.17       0.00       0.00       2.10      10.97       0.18      11.14        3.39   435.19   0.734
  sub65                     15.17       0.00       0.00       1.80      11.16       0.17      11.33        3.49   443.24   0.747
  sub66                     15.17       0.00       0.00       4.21       9.36       0.19       9.55        2.93   391.88   0.630
  sub67                     15.17       0.00       0.00       0.98      13.02       0.23      13.25        4.09   651.79   0.873
  sub68                     15.17       0.00       0.00       1.86      11.98       0.26      12.24        3.77   572.14   0.807
  sub69                     15.17       0.00       0.00       1.93      12.29       0.35      12.64        2.95   514.07   0.833
  sub70                     15.17      12.90       0.00       8.07      16.98       1.48      18.46        4.23   567.23   0.657
  sub71                     15.17       0.00       0.00       1.04      12.22       0.17      12.39        2.93   395.42   0.817
  sub72                     15.17       0.00       0.00       0.97      10.14       0.10      10.23        2.09   211.42   0.674
  1                         15.17      17.97       0.00       1.40      19.64       5.96      25.61        6.02   575.18   0.773
  2                         15.17       0.00       0.00       3.09       3.65       2.57       6.22        2.49   319.08   0.410
  
  
  ****************************
  Subcatchment Washoff Summary
  ****************************
  
  ------------------------------------------------------------------------------------------
                                 COD            SS            TN            TP         NH4-N
  Subcatchment                    kg            kg            kg            kg            kg
  ------------------------------------------------------------------------------------------
  sub0                         3.165         6.185         0.055         0.005         0.027
  sub1                        13.650        27.507         0.256         0.018         0.123
  sub2                         8.731        17.204         0.182         0.012         0.084
  sub3                        21.444        41.934         0.439         0.030         0.203
  sub4                        31.553        64.442         0.622         0.038         0.299
  sub5                        31.185        61.886         0.561         0.043         0.273
  sub7                         6.889        14.056         0.130         0.009         0.063
  sub8                        10.283        21.482         0.204         0.012         0.098
  sub9                         8.835        18.197         0.171         0.011         0.082
  sub10                       25.600        51.462         0.472         0.034         0.229
  sub11                       24.784        50.351         0.466         0.032         0.225
  sub12                       21.266        42.379         0.388         0.029         0.188
  sub14                       18.938        38.635         0.359         0.024         0.174
  sub15                       25.366        49.902         0.487         0.036         0.230
  sub16                       16.439        32.275         0.312         0.024         0.147
  sub17                       15.099        29.381         0.280         0.022         0.132
  sub22                       80.453       155.575         1.523         0.116         0.715
  sub23                       46.239        92.443         0.972         0.064         0.448
  sub60                      303.339       578.212         5.996         0.373         2.878
  sub61                      377.383       716.545         7.015         0.486         3.383
  sub62                      388.402       749.398         7.546         0.484         3.629
  sub63                      280.345       524.740         5.566         0.395         2.593
  sub64                      384.384       707.202         7.062         0.518         3.379
  sub65                      392.900       725.696         7.263         0.524         3.480
  sub66                      220.892       409.929         4.484         0.296         2.101
  sub67                      578.161      1104.830        10.411         0.773         5.041
  sub68                      413.103       791.857         7.874         0.538         3.771
  sub69                      371.031       718.435         6.951         0.494         3.332
  sub70                      641.694      1245.372        12.801         0.900         6.029
  sub71                      255.569       497.537         5.207         0.306         2.495
  sub72                      208.830       378.080         3.888         0.268         1.872
  1                          471.158       919.347         9.551         0.672         4.455
  2                           54.504        97.732         1.515         0.092         0.649
  ------------------------------------------------------------------------------------------
  System                    5751.615     10980.208       111.010         7.676        52.826
  
  
  ******************
  Node Depth Summary
  ******************
  
  ---------------------------------------------------------------------------------
                                 Average  Maximum  Maximum  Time of Max    Reported
                                   Depth    Depth      HGL   Occurrence   Max Depth
  Node                 Type       Meters   Meters   Meters  days hr:min      Meters
  ---------------------------------------------------------------------------------
  WS02001211           JUNCTION     0.21     0.32     5.16     0  02:44        0.32
  WS02001212           JUNCTION     0.04     0.16     5.22     0  02:43        0.16
  WS02001213           JUNCTION     0.35     0.51     5.27     0  02:42        0.51
  WS02003069           JUNCTION     0.20     0.38     4.97     0  02:43        0.38
  WS02003072           JUNCTION     0.26     0.45     4.82     0  02:43        0.45
  WS02003073           JUNCTION     0.14     0.27     4.33     0  02:44        0.27
  WS02003060           JUNCTION     0.18     0.34     5.27     0  02:42        0.34
  WS02003066           JUNCTION     0.16     0.29     5.84     0  02:41        0.29
  WS02003059           JUNCTION     0.42     0.59     5.27     0  02:42        0.59
  WS02003067           JUNCTION     0.41     0.69     6.01     0  02:41        0.69
  WS02004401           JUNCTION     0.49     0.82     6.82     0  02:37        0.82
  WS02004402           JUNCTION     0.52     0.85     6.81     0  02:37        0.85
  WS02004403           JUNCTION     0.55     0.87     6.80     0  02:37        0.87
  WS02004404           JUNCTION     0.62     0.94     6.79     0  02:37        0.94
  WS02004406           JUNCTION     0.63     0.94     6.77     0  02:38        0.94
  WS02004409           JUNCTION     0.30     0.64     6.41     0  02:40        0.64
  WS02004410           JUNCTION     0.32     0.66     6.38     0  02:40        0.66
  WS02004411           JUNCTION     0.35     0.67     6.35     0  02:40        0.67
  WS02004412           JUNCTION     0.37     0.68     6.32     0  02:40        0.68
  WS02004413           JUNCTION     0.52     0.84     6.31     0  02:41        0.84
  WS02004405           JUNCTION     0.62     0.93     6.78     0  02:37        0.93
  WS02006109           JUNCTION     0.55     0.90     7.52     0  02:34        0.90
  WS02006110           JUNCTION     0.56     0.88     7.46     0  02:35        0.88
  WS02006111           JUNCTION     0.14     0.27     6.98     0  02:35        0.27
  WS02006112           JUNCTION     0.64     1.01     6.90     0  02:38        1.01
  WS02006113           JUNCTION     0.21     0.43     7.32     0  02:35        0.43
  WS02006115           JUNCTION     0.38     0.72     6.86     0  02:37        0.72
  WS02006116           JUNCTION     0.46     0.80     6.84     0  02:38        0.80
  WS02006230           JUNCTION     0.45     0.86     7.60     0  02:35        0.86
  WS02006231           JUNCTION     0.21     0.45     7.58     0  02:35        0.45
  WS02006232           JUNCTION     0.31     0.53     7.57     0  02:35        0.53
  WS02006234           JUNCTION     0.19     0.37     7.53     0  02:35        0.37
  WS02006235           JUNCTION     0.20     0.30     7.46     0  02:36        0.30
  WS02006238           JUNCTION     0.23     0.33     7.47     0  02:36        0.33
  WS02006240           JUNCTION     0.19     0.26     7.55     0  02:37        0.26
  WS02006242           JUNCTION     0.26     0.34     7.61     0  02:37        0.34
  WS02006243           JUNCTION     0.16     0.22     7.64     0  02:36        0.22
  WS02006245           JUNCTION     0.19     0.25     7.73     0  02:35        0.25
  WS02006247           JUNCTION     0.21     0.28     7.78     0  02:35        0.28
  WS02006248           JUNCTION     0.17     0.23     7.81     0  02:34        0.23
  WS02006249           JUNCTION     0.22     0.28     7.87     0  02:34        0.28
  WS02006239           JUNCTION     0.21     0.29     7.50     0  02:37        0.29
  WS02006251           JUNCTION     0.20     0.26     7.93     0  02:33        0.26
  WS02006252           JUNCTION     0.51     0.59     8.84     0  04:35        0.59
  WS02006253           JUNCTION     0.24     0.35     8.00     0  02:33        0.35
  WS02006256           JUNCTION     2.11     2.35     9.28     0  00:00        2.35
  WS02004138           JUNCTION     0.10     0.10     7.35     0  00:02        0.10
  WS02004139           JUNCTION     0.10     0.14     5.05     0  02:44        0.14
  WS02004407           JUNCTION     0.14     0.29     6.60     0  02:38        0.29
  WS02006228           JUNCTION     0.53     0.93     7.58     0  02:34        0.93
  WS02006229           JUNCTION     0.49     0.92     7.61     0  02:34        0.92
  WS02006280           JUNCTION     0.09     0.25     8.52     0  02:34        0.25
  WS02006284           JUNCTION     0.40     0.63     9.03     0  02:34        0.63
  WS02006287           JUNCTION     0.13     0.37     9.33     0  02:33        0.37
  WSF200               JUNCTION     0.13     0.28     5.51     0  02:41        0.28
  HS02004901           JUNCTION     0.15     0.36    10.18     0  02:32        0.36
  HS02004881           JUNCTION     0.01     0.05     9.08     0  02:33        0.05
  HS02004876           JUNCTION     0.06     0.15     9.18     0  02:33        0.15
  HS02004870           JUNCTION     0.02     0.09     9.37     0  02:33        0.09
  HS02004862           JUNCTION     0.03     0.10     9.49     0  02:34        0.10
  HS02004856           JUNCTION     0.09     0.15     9.57     0  02:33        0.15
  HS02004852           JUNCTION     0.02     0.07     9.58     0  02:33        0.07
  HS02004848           JUNCTION     0.02     0.06     9.67     0  02:33        0.06
  HS02004842           JUNCTION     0.34     0.40     9.67     0  02:33        0.40
  HS02004837           JUNCTION     0.04     0.08     9.66     0  02:33        0.08
  HS02004830           JUNCTION     0.05     0.10     9.57     0  02:34        0.10
  HS02004824           JUNCTION     0.03     0.12     9.52     0  02:34        0.12
  HS02004817           JUNCTION     0.46     0.68     9.53     0  02:34        0.68
  HS02004807           JUNCTION     0.15     0.35     9.52     0  02:34        0.35
  HS02004802           JUNCTION     0.19     0.38     9.51     0  02:34        0.38
  HS02004799           JUNCTION     0.16     0.44     9.65     0  02:32        0.44
  HS02004792           JUNCTION     0.05     0.20     9.73     0  02:32        0.20
  HS02004788           JUNCTION     0.04     0.15    10.05     0  02:33        0.15
  HS02004785           JUNCTION     0.07     0.23    10.13     0  02:32        0.23
  HS02004777           JUNCTION     0.17     0.37    10.17     0  02:32        0.37
  HS02004770           JUNCTION     0.14     0.35    10.18     0  02:32        0.35
  HS02004480           JUNCTION     0.11     0.36     9.60     0  02:32        0.36
  HS02004479           JUNCTION     0.15     0.40     9.60     0  02:32        0.40
  HS02004478           JUNCTION     0.08     0.26     9.49     0  02:33        0.26
  YS02001745           JUNCTION     0.64     0.93     8.44     0  03:01        0.92
  YS02001748           JUNCTION     1.01     1.37     8.44     0  02:22        1.35
  YS02001751           JUNCTION     1.18     1.55     8.43     0  02:57        1.54
  YS02001754           JUNCTION     1.42     1.81     8.42     0  03:02        1.81
  YS02001762           JUNCTION     1.62     2.03     8.43     0  02:47        2.01
  YS02001765           JUNCTION     1.57     1.98     8.43     0  02:47        1.97
  YS02001767           JUNCTION     1.54     1.93     8.42     0  03:00        1.93
  YS02001770           JUNCTION     1.54     1.92     8.41     0  03:00        1.92
  YS02001774           JUNCTION     1.60     1.98     8.40     0  02:53        1.97
  YS02001779           JUNCTION     1.35     1.68     8.37     0  02:27        1.68
  YS02001882           JUNCTION     0.65     1.63     8.35     0  02:54        1.63
  YS02001884           JUNCTION     0.74     1.74     8.35     0  02:51        1.73
  YS02001759           JUNCTION     1.65     2.06     8.43     0  02:47        2.05
  YS02001887           JUNCTION     0.82     1.81     8.35     0  02:44        1.81
  YS02001890           JUNCTION     0.84     1.81     8.32     0  02:27        1.81
  YS02001898           JUNCTION     0.61     1.56     8.30     0  02:42        1.56
  YS02001901           JUNCTION     0.72     1.68     8.29     0  02:43        1.68
  YS02001904           JUNCTION     0.70     1.64     8.27     0  02:46        1.63
  YS02001907           JUNCTION     1.03     1.96     8.25     0  02:28        1.96
  YS02001910           JUNCTION     0.82     1.80     8.30     0  02:28        1.79
  YS02001915           JUNCTION     0.63     1.62     8.34     0  02:28        1.61
  YS02001918           JUNCTION     0.37     1.32     8.38     0  02:29        1.32
  YS02001619           JUNCTION     1.16     1.50     8.43     0  02:22        1.48
  YS02001629           JUNCTION     1.49     1.85     8.40     0  02:21        1.84
  YS02001641           JUNCTION     1.59     1.93     8.37     0  02:30        1.93
  YS02001644           JUNCTION     1.59     1.92     8.35     0  02:24        1.92
  YS02001652           JUNCTION     1.44     1.97     8.57     0  02:35        1.92
  YS02001655           JUNCTION     1.21     1.83     8.68     0  02:35        1.75
  YS02001920           JUNCTION     0.46     1.41     8.42     0  02:28        1.40
  YS02001923           JUNCTION     0.29     1.18     8.44     0  02:28        1.17
  YS02001926           JUNCTION     0.33     1.09     8.54     0  02:28        0.99
  YS02001929           JUNCTION     0.20     0.78     8.47     0  02:29        0.78
  YS02001658           JUNCTION     0.96     1.64     8.78     0  04:13        1.51
  YS02001661           JUNCTION     0.75     1.69     9.09     0  02:35        1.36
  YS02001664           JUNCTION     0.32     0.57     8.50     0  04:11        0.54
  YS02001622           JUNCTION     1.17     1.51     8.42     0  02:22        1.50
  YS02001633           JUNCTION     1.58     1.95     8.41     0  02:24        1.94
  YS02001649           JUNCTION     1.63     2.05     8.44     0  02:32        2.05
  YS02001757           JUNCTION     1.75     2.16     8.42     0  04:09        2.14
  YS02001895           JUNCTION     0.61     1.57     8.31     0  02:38        1.56
  YS02001625           JUNCTION     1.45     1.78     8.38     0  02:20        1.78
  YS02163301           JUNCTION     1.52     1.89     8.40     0  02:21        1.88
  YS02163601           JUNCTION     1.63     1.99     8.39     0  02:24        1.98
  YS02164001           JUNCTION     1.57     1.92     8.38     0  02:24        1.91
  YS02001647           JUNCTION     1.42     1.81     8.42     0  02:33        1.79
  YSB1154              JUNCTION     0.29     0.55     9.61     0  02:32        0.55
  YSB6556              JUNCTION     0.18     0.44     9.61     0  02:33        0.44
  YSB1174              JUNCTION     0.24     0.50     9.61     0  02:32        0.50
  YSB1171              JUNCTION     0.44     0.70     9.61     0  02:33        0.70
  YS02006553           JUNCTION     1.03     1.98     8.26     0  03:01        1.96
  YS02006561           JUNCTION     0.35     1.05     7.71     0  03:12        1.05
  YS02006556           JUNCTION     0.99     1.96     8.27     0  03:01        1.92
  YS02006558           JUNCTION     1.03     2.00     8.26     0  03:01        1.96
  YS02001783           JUNCTION     0.55     1.43     7.57     0  03:13        1.43
  YS02001784           JUNCTION     0.55     1.37     7.44     0  03:13        1.37
  YS02001786           JUNCTION     0.46     1.21     7.24     0  03:14        1.21
  YS02001788           JUNCTION     0.36     1.07     7.05     0  03:14        1.07
  YS02001790           JUNCTION     0.43     1.23     6.88     0  03:15        1.23
  YS02001791           JUNCTION     0.31     1.21     6.68     0  03:15        1.21
  YS02001793           JUNCTION     0.32     1.73     6.56     0  03:15        1.73
  WSC                  OUTFALL      0.14     0.27     0.94     0  02:45        0.27
  3                    OUTFALL      0.00     0.00     7.16     0  00:00        0.00
  4                    OUTFALL      0.00     0.00     7.67     0  00:00        0.00
  5                    OUTFALL      0.00     0.00     4.91     0  00:00        0.00
  JK-storage           STORAGE      1.07     5.74     6.54     0  03:15        5.74
  CC-storage           STORAGE      0.96     1.37     8.37     0  03:16        1.37
  XR-storage           STORAGE      7.65     7.72     5.72     0  00:51        7.72
  
  
  *******************
  Node Inflow Summary
  *******************
  
  -------------------------------------------------------------------------------------------------
                                  Maximum  Maximum                  Lateral       Total        Flow
                                  Lateral    Total  Time of Max      Inflow      Inflow     Balance
                                   Inflow   Inflow   Occurrence      Volume      Volume       Error
  Node                 Type           LPS      LPS  days hr:min    10^6 ltr    10^6 ltr     Percent
  -------------------------------------------------------------------------------------------------
  WS02001211           JUNCTION      7.35    75.74     0  02:43       0.212       0.446       1.019
  WS02001212           JUNCTION      0.00    68.47     0  02:42           0       0.234       0.006
  WS02001213           JUNCTION      0.00    68.71     0  02:41           0       0.244       3.938
  WS02003069           JUNCTION      0.32   447.02     0  02:42     0.00922        3.58       0.182
  WS02003072           JUNCTION      0.00   447.00     0  02:43           0        3.58       0.286
  WS02003073           JUNCTION      1.82   448.79     0  02:44      0.0524        3.62       0.255
  WS02003060           JUNCTION     16.53   515.72     0  02:41       0.476        3.85       0.162
  WS02003066           JUNCTION      0.00   499.17     0  02:41           0        3.37       0.058
  WS02003059           JUNCTION      0.00    72.64     0  01:52           0       0.268       7.321
  WS02003067           JUNCTION      0.00   499.14     0  02:41           0        3.37       0.149
  WS02004401           JUNCTION      0.00   502.19     0  02:36           0         3.5       0.349
  WS02004402           JUNCTION      0.00   501.75     0  02:37           0        3.49       0.349
  WS02004403           JUNCTION      0.00   501.56     0  02:37           0        3.47       0.334
  WS02004404           JUNCTION      0.16   501.55     0  02:37     0.00467        3.47       0.270
  WS02004406           JUNCTION      0.00   501.56     0  02:37           0        3.44       0.667
  WS02004409           JUNCTION      0.00   501.47     0  02:38           0        3.42       0.145
  WS02004410           JUNCTION      0.00   500.53     0  02:39           0        3.41       0.199
  WS02004411           JUNCTION      0.00   499.90     0  02:39           0        3.41       0.231
  WS02004412           JUNCTION      0.00   499.48     0  02:40           0         3.4       0.288
  WS02004413           JUNCTION      0.00   499.25     0  02:40           0        3.39       0.491
  WS02004405           JUNCTION      0.04   501.56     0  02:37      0.0011        3.46       0.416
  WS02006109           JUNCTION      1.23   479.61     0  02:35      0.0354        3.46       0.367
  WS02006110           JUNCTION      0.00   479.61     0  02:35           0        3.45       0.329
  WS02006111           JUNCTION      0.00   495.26     0  02:35           0        3.43       0.039
  WS02006112           JUNCTION     26.04   506.19     0  02:35      0.0998        3.53       0.472
  WS02006113           JUNCTION      0.00   479.74     0  02:35           0        3.44       0.087
  WS02006115           JUNCTION      0.00   505.29     0  02:34           0        3.52       0.298
  WS02006116           JUNCTION      0.00   502.83     0  02:36           0        3.51       0.228
  WS02006230           JUNCTION     10.28   166.39     0  02:34       0.296        1.28       0.476
  WS02006231           JUNCTION      0.00   166.14     0  02:34           0        1.02       0.223
  WS02006232           JUNCTION      0.00   165.96     0  02:35           0        1.02       0.564
  WS02006234           JUNCTION      0.00   165.96     0  02:35           0        1.03       0.119
  WS02006235           JUNCTION      0.00   534.82     0  02:36           0        8.36       0.041
  WS02006238           JUNCTION      0.00    96.82     0  02:38           0        1.64       0.161
  WS02006240           JUNCTION      0.00    96.74     0  02:37           0        1.64       0.237
  WS02006242           JUNCTION      0.00    96.79     0  02:36           0        1.64       0.356
  WS02006243           JUNCTION      0.00    96.84     0  02:35           0        1.64       0.140
  WS02006245           JUNCTION      0.00    96.86     0  02:35           0        1.65       0.252
  WS02006247           JUNCTION      0.00    96.88     0  02:34           0        1.65       0.208
  WS02006248           JUNCTION      0.00    96.89     0  02:34           0        1.65       0.087
  WS02006249           JUNCTION      0.00    96.95     0  02:33           0        1.66       0.321
  WS02006239           JUNCTION      0.00    96.74     0  02:37           0        1.64       0.209
  WS02006251           JUNCTION      0.08   534.52     0  02:33     0.00222        9.56       0.034
  WS02006252           JUNCTION      0.00   400.00     0  01:47           0        9.02       0.006
  WS02006253           JUNCTION      3.21   133.80     0  02:33      0.0117       0.549       0.482
  WS02006256           JUNCTION      0.00   983.00     0  00:00           0        14.9      -0.009
  WS02004138           JUNCTION      0.00    95.00     0  00:00           0        2.74       0.087
  WS02004139           JUNCTION      0.32   171.00     0  02:44     0.00924        3.18       0.070
  WS02004407           JUNCTION      0.00   501.51     0  02:38           0        3.42       0.069
  WS02006228           JUNCTION      0.00   478.39     0  02:35           0        3.43       0.239
  WS02006229           JUNCTION      0.00   634.36     0  02:34           0        3.74       0.249
  WS02006280           JUNCTION      0.00   634.35     0  02:34           0         2.8       0.003
  WS02006284           JUNCTION      0.10   634.29     0  02:34     0.00275         2.8       0.034
  WS02006287           JUNCTION      0.00   634.15     0  02:34           0         2.8       0.026
  WSF200               JUNCTION      0.00   499.17     0  02:41           0        3.37       0.033
  HS02004901           JUNCTION     31.81    31.81     0  02:30       0.121       0.121       1.476
  HS02004881           JUNCTION     12.44   130.87     0  02:33       0.048       0.537       0.012
  HS02004876           JUNCTION     22.74   118.87     0  02:33      0.0929       0.489       0.110
  HS02004870           JUNCTION     23.06    96.37     0  02:33      0.0909       0.397       0.028
  HS02004862           JUNCTION     22.63    73.96     0  02:33       0.103       0.306       0.057
  HS02004856           JUNCTION     17.28    51.38     0  02:33      0.0684       0.204       0.714
  HS02004852           JUNCTION      0.00    34.55     0  02:33           0       0.136       0.041
  HS02004848           JUNCTION     50.35    50.35     0  02:35       0.231       0.231       0.022
  HS02004842           JUNCTION      0.00    16.75     0  02:44           0       0.108      13.702
  HS02004837           JUNCTION     45.30    60.39     0  02:33       0.341       0.436       0.188
  HS02004830           JUNCTION      0.15    60.51     0  02:33     0.00432       0.426       0.290
  HS02004824           JUNCTION     60.03   120.43     0  02:35       0.287       0.712       0.077
  HS02004817           JUNCTION      0.60   121.57     0  02:36      0.0173       0.728       2.342
  HS02004807           JUNCTION     42.47   161.72     0  02:35       0.167       0.879       0.498
  HS02004802           JUNCTION      0.00   162.22     0  02:36           0       0.876       0.454
  HS02004799           JUNCTION     34.05   403.34     0  02:32       0.135        1.66       0.163
  HS02004792           JUNCTION    157.46   369.79     0  02:32       0.641        1.52       0.028
  HS02004788           JUNCTION     51.21   213.19     0  02:32       0.249       0.885       0.045
  HS02004785           JUNCTION      0.15   162.22     0  02:32     0.00432       0.637       0.078
  HS02004777           JUNCTION      0.03   162.28     0  02:31    0.000864       0.637       0.821
  HS02004770           JUNCTION    131.42   162.77     0  02:31        0.52       0.639       0.487
  HS02004480           JUNCTION      0.00   473.81     0  02:32           0        1.94       0.058
  HS02004479           JUNCTION      0.00    70.63     0  02:32           0       0.293       0.251
  HS02004478           JUNCTION      0.00   634.12     0  02:34           0         2.8       0.011
  YS02001745           JUNCTION    455.26   455.26     0  03:01        3.51        3.51       0.197
  YS02001748           JUNCTION      0.04   467.57     0  02:21      0.0013        3.51       0.577
  YS02001751           JUNCTION      0.01   458.32     0  02:58    0.000317        3.49       0.671
  YS02001754           JUNCTION      0.26   458.27     0  02:59     0.00749        3.47       0.707
  YS02001762           JUNCTION      0.00   434.92     0  02:30           0        2.12       0.990
  YS02001765           JUNCTION      0.00   434.85     0  02:30           0        2.13       1.132
  YS02001767           JUNCTION      0.54   434.71     0  02:30      0.0154        2.15       1.665
  YS02001770           JUNCTION    550.72   600.91     0  03:01         3.9        4.09       0.745
  YS02001774           JUNCTION      0.00   601.70     0  03:01           0        2.11       1.191
  YS02001779           JUNCTION      0.01   601.71     0  03:01    0.000144        2.08       0.718
  YS02001882           JUNCTION      0.00    23.66     0  02:22           0       0.029       6.553
  YS02001884           JUNCTION      0.00    25.14     0  02:21           0      0.0666       9.706
  YS02001759           JUNCTION    529.84   867.35     0  02:30         3.6        5.51       0.405
  YS02001887           JUNCTION    652.24   653.55     0  02:47         4.1        4.13       0.199
  YS02001890           JUNCTION      0.00   652.91     0  02:47           0        4.09       0.215
  YS02001898           JUNCTION      0.00   526.01     0  02:27           0        3.83       0.079
  YS02001901           JUNCTION      0.00   524.77     0  02:27           0        3.83       0.163
  YS02001904           JUNCTION      0.00   523.55     0  02:27           0        3.83       0.143
  YS02001907           JUNCTION      0.00  1127.61     0  02:29           0         8.9       0.266
  YS02001910           JUNCTION      0.00   610.00     0  03:00           0        5.08       0.236
  YS02001915           JUNCTION    395.44   609.58     0  03:01        2.93        5.11       0.109
  YS02001918           JUNCTION      0.00   308.68     0  02:29           0        2.21       0.063
  YS02001619           JUNCTION    391.88   391.88     0  03:01        2.93        2.93       0.407
  YS02001629           JUNCTION      0.00   231.39     0  02:23           0        1.56       1.841
  YS02001641           JUNCTION      0.00   486.20     0  02:24           0         4.8       0.432
  YS02001644           JUNCTION    435.23  1425.15     0  03:01        3.39        10.6       0.240
  YS02001652           JUNCTION      0.00   511.95     0  02:46           0        3.08       0.730
  YS02001655           JUNCTION      0.15   511.23     0  02:46     0.00443         3.1       0.797
  YS02001920           JUNCTION      2.87   308.17     0  02:29      0.0827        2.19       0.120
  YS02001923           JUNCTION      0.04   262.40     0  02:29     0.00109         2.1       0.050
  YS02001926           JUNCTION      0.05   213.03     0  03:01      0.0015        2.09       0.156
  YS02001929           JUNCTION    211.42   211.42     0  03:01        2.08        2.08       0.033
  YS02001658           JUNCTION      0.00   515.67     0  02:34           0        3.12       0.709
  YS02001661           JUNCTION      0.00   771.91     0  02:32           0        3.39      -0.742
  YS02001664           JUNCTION    479.64   479.64     0  02:51         3.1         3.4       0.083
  YS02001622           JUNCTION      0.00   392.51     0  03:00           0        2.92       1.084
  YS02001633           JUNCTION    443.44   486.87     0  02:24        3.49        4.93       0.648
  YS02001649           JUNCTION      0.00  1042.11     0  02:24           0        6.36       0.579
  YS02001757           JUNCTION      0.00  2133.60     0  02:29           0        12.7       0.729
  YS02001895           JUNCTION      0.00   524.82     0  02:27           0        3.84       0.124
  YS02001625           JUNCTION      0.00   451.83     0  03:01           0        2.96       1.310
  YS02163301           JUNCTION      0.00   232.45     0  02:23           0        1.54       1.548
  YS02163601           JUNCTION      0.11   486.72     0  02:24     0.00317        4.82       0.620
  YS02164001           JUNCTION      0.00   486.44     0  02:24           0         4.8       0.400
  YS02001647           JUNCTION      0.00   742.48     0  02:24           0        4.96       0.560
  YSB1154              JUNCTION     39.78    39.78     0  02:31       0.163       0.164       0.892
  YSB6556              JUNCTION      0.00    39.56     0  02:32           0       0.165       0.764
  YSB1174              JUNCTION     32.74    32.74     0  02:29       0.121       0.122       1.067
  YSB1171              JUNCTION      0.00    70.81     0  02:31           0       0.292       2.218
  YS02006553           JUNCTION      0.00   713.67     0  03:46           0        7.33       0.209
  YS02006561           JUNCTION      0.00  1149.25     0  02:45           0        11.1       0.007
  YS02006556           JUNCTION      0.00   714.82     0  03:46           0        7.34       0.139
  YS02006558           JUNCTION    573.02  1149.94     0  02:45        3.79        11.1       0.040
  YS02001783           JUNCTION      0.00  1149.28     0  02:58           0        11.1       0.019
  YS02001784           JUNCTION      1.06  1150.38     0  02:45      0.0305        11.1       0.033
  YS02001786           JUNCTION      0.06  1150.33     0  02:58     0.00162        11.1       0.032
  YS02001788           JUNCTION      0.07  1150.26     0  02:45     0.00204        11.1       0.019
  YS02001790           JUNCTION      0.15  1164.45     0  02:41     0.00446        11.1       0.020
  YS02001791           JUNCTION      0.00  1279.10     0  02:48           0        11.1       0.007
  YS02001793           JUNCTION      0.00  1241.70     0  02:49           0        11.1       0.000
  WSC                  OUTFALL       0.00   448.70     0  02:45           0        3.61       0.000
  3                    OUTFALL       0.00   534.82     0  02:36           0        7.66       0.000
  4                    OUTFALL       0.00   437.05     0  02:33           0         7.9       0.000
  5                    OUTFALL       0.00   170.99     0  02:44           0        3.18       0.000
  JK-storage           STORAGE       0.00  1250.90     0  02:47           0        11.2     -24.427
  CC-storage           STORAGE       0.00  2133.97     0  02:29           0        11.8      -0.189
  XR-storage           STORAGE    1080.52  1080.52     0  03:01        14.3        14.9      -0.000
  
  
  **********************
  Node Surcharge Summary
  **********************
  
  Surcharging occurs when water rises above the top of the highest conduit.
  ---------------------------------------------------------------------
                                               Max. Height   Min. Depth
                                   Hours       Above Crown    Below Rim
  Node                 Type      Surcharged         Meters       Meters
  ---------------------------------------------------------------------
  WS02006109           JUNCTION        0.54          0.085        1.735
  WS02006112           JUNCTION        0.15          0.013        1.667
  WS02006252           JUNCTION        6.25          0.193        0.907
  WS02006256           JUNCTION        6.51          2.050        0.000
  WS02006228           JUNCTION        0.52          0.098        2.102
  YS02001748           JUNCTION        5.04          0.285        0.905
  YS02001751           JUNCTION        5.70          0.553        0.647
  YS02001754           JUNCTION        5.79          0.764        0.386
  YS02001762           JUNCTION        6.02          1.028        0.122
  YS02001765           JUNCTION        6.00          0.976        0.124
  YS02001767           JUNCTION        5.98          0.932        0.098
  YS02001770           JUNCTION        5.91          0.889        0.031
  YS02001774           JUNCTION        6.02          0.980        0.070
  YS02001779           JUNCTION        5.79          0.680        0.000
  YS02001882           JUNCTION        1.41          0.635        0.195
  YS02001884           JUNCTION        1.43          0.677        0.193
  YS02001759           JUNCTION        6.04          1.064        0.146
  YS02001887           JUNCTION        1.49          0.762        0.188
  YS02001890           JUNCTION        1.52          0.760        0.000
  YS02001898           JUNCTION        1.37          0.533        0.207
  YS02001901           JUNCTION        1.46          0.678        0.192
  YS02001904           JUNCTION        1.44          0.637        0.213
  YS02001907           JUNCTION        2.12          0.950        0.000
  YS02001910           JUNCTION        1.55          0.798        0.302
  YS02001915           JUNCTION        1.39          0.619        0.381
  YS02001918           JUNCTION        1.23          0.318        0.492
  YS02001619           JUNCTION        5.72          0.498        0.112
  YS02001629           JUNCTION        5.71          0.470        0.000
  YS02001641           JUNCTION        6.01          0.935        0.165
  YS02001644           JUNCTION        6.01          0.920        0.000
  YS02001652           JUNCTION        5.81          0.944        0.186
  YS02001655           JUNCTION        5.72          0.826        0.374
  YS02001920           JUNCTION        1.26          0.408        0.732
  YS02001926           JUNCTION        0.01          0.093        0.807
  YS02001658           JUNCTION        5.12          0.641        0.659
  YS02001661           JUNCTION        0.13          0.615        0.775
  YS02001622           JUNCTION        5.72          0.512        0.108
  YS02001633           JUNCTION        5.99          0.933        0.127
  YS02001649           JUNCTION        6.03          1.050        0.000
  YS02001757           JUNCTION        6.12          1.157        0.053
  YS02001895           JUNCTION        1.38          0.568        0.182
  YS02001625           JUNCTION        5.85          0.780        0.000
  YS02163301           JUNCTION        5.97          0.886        0.144
  YS02163601           JUNCTION        6.03          0.994        0.086
  YS02164001           JUNCTION        6.00          0.921        0.179
  YS02001647           JUNCTION        5.82          0.805        0.095
  YS02006553           JUNCTION        2.21          0.977        0.213
  YS02006561           JUNCTION        1.25          0.249        0.901
  YS02006556           JUNCTION        1.76          0.919        0.431
  YS02006558           JUNCTION        1.72          0.898        0.502
  YS02001783           JUNCTION        1.51          0.633        0.967
  YS02001784           JUNCTION        1.47          0.572        0.918
  YS02001786           JUNCTION        1.35          0.411        1.019
  YS02001788           JUNCTION        0.72          0.274        1.206
  YS02001790           JUNCTION        0.82          0.432        0.725
  YS02001791           JUNCTION        0.81          0.406        1.514
  YS02001793           JUNCTION        0.93          0.731        1.869
  
  
  *********************
  Node Flooding Summary
  *********************
  
  Flooding refers to all water that overflows a node, whether it ponds or not.
  --------------------------------------------------------------------------
                                                             Total   Maximum
                                 Maximum   Time of Max       Flood    Ponded
                        Hours       Rate    Occurrence      Volume     Depth
  Node                 Flooded       LPS   days hr:min    10^6 ltr    Meters
  --------------------------------------------------------------------------
  WS02006256              5.51    978.40      0  00:00       8.482     0.000
  YS02001779              2.69    601.50      0  03:01       2.060     0.000
  YS02001890              0.68    136.89      0  02:48       0.241     0.000
  YS02001907              1.09    601.96      0  03:01       1.549     0.000
  YS02001629              0.01      3.79      0  02:22       0.000     0.000
  YS02001644              3.66   1424.97      0  03:01       7.940     0.000
  YS02001649              0.01     11.12      0  04:13       0.000     0.000
  YS02001625              1.71    451.65      0  03:01       1.437     0.000
  XR-storage              7.14    985.45      0  03:01      11.201     0.000
  
  
  **********************
  Storage Volume Summary
  **********************
  
  --------------------------------------------------------------------------------------------------
                         Average     Avg  Evap Exfil       Maximum     Max    Time of Max    Maximum
                          Volume    Pcnt  Pcnt  Pcnt        Volume    Pcnt     Occurrence    Outflow
  Storage Unit           1000 m3    Full  Loss  Loss       1000 m3    Full    days hr:min        LPS
  --------------------------------------------------------------------------------------------------
  JK-storage               0.054      18     0     0         0.288      99       0  03:15     983.00
  CC-storage               2.664      17     0     0         3.829      24       0  03:16     400.00
  XR-storage               0.918      99     0     0         0.926     100       0  00:51      95.00
  
  
  ***********************
  Outfall Loading Summary
  ***********************
  
  ---------------------------------------------------------------------------------------------------------------------------------
                         Flow       Avg       Max       Total         Total         Total         Total         Total         Total
                         Freq      Flow      Flow      Volume           COD            SS            TN            TP         NH4-N
  Outfall Node           Pcnt       LPS       LPS    10^6 ltr            kg            kg            kg            kg            kg
  ---------------------------------------------------------------------------------------------------------------------------------
  WSC                   99.97    151.09    448.70       3.610       474.478       869.555        22.654         2.525        13.300
  3                     99.98    306.13    534.82       7.658       407.317       788.455         7.973         0.573         3.884
  4                     99.97    311.91    437.05       7.903       733.705      1386.153        14.430         0.995         6.969
  5                     99.99    113.45    170.99       3.181       457.991       769.541        35.905         4.367        22.089
  ---------------------------------------------------------------------------------------------------------------------------------
  System                99.98    882.58   1566.07      22.352      2073.492      3813.704        80.963         8.460        46.242
  
  
  ********************
  Link Flow Summary
  ********************
  
  -----------------------------------------------------------------------------
                                 Maximum  Time of Max   Maximum    Max/    Max/
                                  |Flow|   Occurrence   |Veloc|    Full    Full
  Link                 Type          LPS  days hr:min     m/sec    Flow   Depth
  -----------------------------------------------------------------------------
  WS02003066WSF200     CONDUIT    499.17     0  02:41      2.83    0.08    0.21
  WS02006287WS02006284 CONDUIT    634.20     0  02:34      2.34    0.29    0.38
  WS02006284WS02006280 CONDUIT    634.35     0  02:34      2.57    0.27    0.35
  WS02006280WS02006229 CONDUIT    634.36     0  02:34      4.17    0.14    0.25
  WS02006229WS02006228 CONDUIT    478.39     0  02:35      0.95    1.58    1.00
  WS02006256WS02006235 CONDUIT    289.81     0  02:19      4.46    3.07    0.99
  WS02006253WS02006251 CONDUIT    133.83     0  02:33      0.85    0.40    0.43
  WS02006252WS02006251 CONDUIT    400.94     0  04:12      3.19    1.47    1.00
  WS02006251WS02006249 CONDUIT     96.95     0  02:33      0.72    0.28    0.38
  WS02006249WS02006248 CONDUIT     96.89     0  02:34      0.82    0.53    0.35
  WS02006248WS02006247 CONDUIT     96.88     0  02:34      0.80    0.21    0.35
  WS02006247WS02006245 CONDUIT     96.86     0  02:35      0.76    0.77    0.37
  WS02006245WS02006243 CONDUIT     96.84     0  02:35      0.89    0.29    0.33
  WS02006243WS02006242 CONDUIT     96.79     0  02:36      0.77    0.21    0.38
  WS02006242WS02006240 CONDUIT     96.74     0  02:37      0.63    0.38    0.42
  WS02006240WS02006239 CONDUIT     96.74     0  02:37      0.80    0.30    0.36
  WS02006239WS02006238 CONDUIT     96.82     0  02:38      0.70    0.31    0.42
  WS02006238WS02006235 CONDUIT     96.97     0  02:38      1.17    0.22    0.44
  WS02006235WS02006234 CONDUIT    166.02     0  02:35      0.98    1.75    0.45
  WS02006234WS02006232 CONDUIT    165.96     0  02:35      0.82    0.34    0.64
  WS02006232WS02006231 CONDUIT    165.96     0  02:35      0.58    0.35    0.69
  WS02006231WS02006230 CONDUIT    166.14     0  02:34      0.61    2.52    0.66
  WS02006230WS02006229 CONDUIT    156.11     0  02:34      0.41    3.47    1.00
  WS02006228WS02006109 CONDUIT    478.38     0  02:35      0.95    2.09    1.00
  WS02006116WS02004401 CONDUIT    502.19     0  02:36      0.74    0.69    0.81
  WS02006115WS02006116 CONDUIT    502.83     0  02:36      0.86    0.65    0.73
  WS02006113WS02006111 CONDUIT    495.26     0  02:35      2.36    0.59    0.43
  WS02006112WS02006115 CONDUIT    505.29     0  02:34      0.71    0.30    0.86
  WS02006111WS02006112 CONDUIT    481.51     0  02:35      1.36    0.23    0.66
  WS02006110WS02006113 CONDUIT    479.74     0  02:35      1.16    0.44    0.77
  WS02006109WS02006110 CONDUIT    479.61     0  02:35      0.96    0.92    0.98
  WS02004411WS02004412 CONDUIT    499.48     0  02:40      0.89    0.71    0.67
  WS02004401WS02004402 CONDUIT    501.75     0  02:37      0.72    0.60    0.84
  WS02004413WS02003067 CONDUIT    499.14     0  02:41      1.07    0.21    0.58
  WS02004412WS02004413 CONDUIT    499.25     0  02:40      0.85    0.33    0.76
  WS02004410WS02004411 CONDUIT    499.90     0  02:39      0.91    0.68    0.66
  WS02004409WS02004410 CONDUIT    500.53     0  02:39      0.93    0.65    0.65
  WS02004407WS02004409 CONDUIT    501.47     0  02:38      1.42    0.18    0.46
  WS02004406WS02004407 CONDUIT    501.51     0  02:38      1.00    0.22    0.61
  WS02004405WS02004406 CONDUIT    501.56     0  02:37      0.66    0.99    0.93
  WS02004404WS02004405 CONDUIT    501.53     0  02:37      0.66    4.91    0.94
  WS02004403WS02004404 CONDUIT    501.39     0  02:37      0.67    0.36    0.90
  WS02004402WS02004403 CONDUIT    501.56     0  02:37      0.70    0.72    0.86
  WS02004139WS02001211 CONDUIT     75.68     0  02:44      0.71    0.10    0.15
  WS02004138WS02004139 CONDUIT     95.00     0  00:02      2.40    0.02    0.10
  WS02003067WS02003066 CONDUIT    499.17     0  02:41      1.16    0.16    0.41
  WS02001213WS02003059 CONDUIT     68.71     0  02:41      0.18    0.11    0.54
  WS02001212WS02001213 CONDUIT     68.47     0  02:42      0.76    0.11    0.17
  WS02001211WS02001212 CONDUIT     68.39     0  02:43      0.47    0.05    0.24
  WS02003072WS02003073 CONDUIT    446.97     0  02:44      1.33    0.97    0.34
  WS02003069WS02003072 CONDUIT    447.00     0  02:43      1.28    0.22    0.35
  WS02003060WS02003069 CONDUIT    446.70     0  02:42      1.56    0.17    0.30
  WS02003059WS02003060 CONDUIT     72.64     0  01:52      0.56    0.05    0.46
  HS02004901HS02004770 CONDUIT     31.41     0  02:31      0.09    0.12    0.50
  HS02004876HS02004881 CONDUIT    118.87     0  02:33      1.17    1.26    0.15
  HS02004870HS02004876 CONDUIT     96.34     0  02:33      0.80    0.06    0.17
  HS02004842HS02004848 CONDUIT     16.75     0  02:44      0.07    0.01    0.33
  HS02004837HS02004842 CONDUIT     17.13     0  02:44      0.42    0.01    0.34
  HS02004830HS02004837 CONDUIT     60.36     0  02:33      0.65    0.06    0.13
  HS02004824HS02004830 CONDUIT     60.47     0  02:34      0.62    0.08    0.15
  HS02004817HS02004824 CONDUIT    120.97     0  02:36      0.31    0.05    0.57
  HS02004770HS02004777 CONDUIT    162.25     0  02:31      0.45    0.30    0.51
  HS02004799HS02004480 CONDUIT    403.24     0  02:32      1.02    0.51    0.57
  HS02004792HS02004799 CONDUIT    369.73     0  02:32      1.15    0.23    0.46
  HS02004788HS02004792 CONDUIT    213.14     0  02:33      1.22    0.14    0.25
  HS02004785HS02004788 CONDUIT    162.20     0  02:33      0.86    1.22    0.27
  HS02004777HS02004785 CONDUIT    162.07     0  02:32      0.54    0.20    0.43
  HS02004480HS02004478 CONDUIT    473.86     0  02:33      1.50    2.00    0.45
  HS02004479HS02004480 CONDUIT     70.61     0  02:33      0.30    0.07    0.54
  HS02004862HS02004870 CONDUIT     73.95     0  02:34      0.78    0.08    0.14
  HS02004848HS02004852 CONDUIT     34.55     0  02:33      0.51    0.04    0.10
  HS02004856HS02004862 CONDUIT     51.34     0  02:33      0.58    0.05    0.13
  HS02004852HS02004856 CONDUIT     34.59     0  02:34      0.32    0.04    0.15
  HS02004802HS02004478 CONDUIT    162.83     0  02:36      0.51    0.14    0.46
  HS02004478WS02006287 CONDUIT    634.15     0  02:34      2.06    0.18    0.34
  HS02004817HS02004807 CONDUIT    122.40     0  02:37      0.24    0.07    0.74
  HS02004807HS02004802 CONDUIT    162.22     0  02:36      0.45    0.31    0.52
  YS02001759YS02001757 CONDUIT    866.94     0  02:30      1.10    0.62    1.00
  YS02001762YS02001759 CONDUIT    434.55     0  02:30      0.55    0.50    1.00
  YS02001765YS02001762 CONDUIT    434.92     0  02:30      0.55    0.41    1.00
  YS02001770YS02001767 CONDUIT    434.17     0  02:30      0.55    1.72    1.00
  YS02001774YS02001770 CONDUIT    601.70     0  03:01      0.77    0.38    1.00
  YS02001779YS02001774 CONDUIT    601.70     0  03:01      0.77    0.30    1.00
  YS02001649YS02001757 CONDUIT   1041.31     0  02:24      1.33    0.63    1.00
  YS02001767YS02001765 CONDUIT    434.85     0  02:30      0.55    0.55    1.00
  YS02006561YS02001783 CONDUIT   1149.28     0  02:58      2.29    0.60    1.00
  YS02001783YS02001784 CONDUIT   1149.32     0  02:45      2.29    1.58    1.00
  YS02001784YS02001785 CONDUIT   1150.27     0  02:58      2.29    2.68    1.00
  YS02001788YS02001790 CONDUIT   1164.29     0  02:41      2.72    0.86    1.00
  YS02001790YS02001791 CONDUIT   1279.10     0  02:48      3.43    1.39    1.00
  YS02001791YS02001793 CONDUIT   1241.70     0  02:49      6.73    0.53    1.00
  YS02001910YS02001907 CONDUIT    610.06     0  02:29      0.78    0.34    1.00
  YS02001786YS02001788 CONDUIT   1150.19     0  02:45      2.47    2.22    1.00
  YS02001915YS02001910 CONDUIT    610.00     0  03:00      0.78    0.30    1.00
  YS02001918YS02001915 CONDUIT    309.25     0  02:29      0.46    0.17    1.00
  YS02001923YS02001920 CONDUIT    305.30     0  02:29      0.79    0.14    1.00
  YS02001926YS02001923 CONDUIT    262.37     0  02:29      0.90    0.37    0.98
  YS02001929YS02001926 CONDUIT    212.97     0  03:01      0.95    0.10    0.89
  YS02001920YS02001918 CONDUIT    308.68     0  02:29      0.75    0.30    1.00
  YS02001629YS02163301 CONDUIT    232.45     0  02:23      0.30    0.29    1.00
  YS02001619YS02001622 CONDUIT    392.51     0  03:00      0.61    0.58    1.00
  YS02001622YS02001625 CONDUIT    392.05     0  03:00      0.50    0.21    1.00
  YS02001625YS02001629 CONDUIT    231.39     0  02:23      0.29    0.11    1.00
  YS02163301YS02001633 CONDUIT    232.40     0  02:23      0.30    0.22    1.00
  YS02163601YS02164001 CONDUIT    486.44     0  02:24      0.62    0.43    1.00
  YS02164001YS02001641 CONDUIT    486.20     0  02:24      0.62    0.66    1.00
  YS02001641YS02001644 CONDUIT    486.57     0  02:24      0.62    1.57    1.00
  YS02001647YS02001649 CONDUIT    742.85     0  02:24      0.95    0.39    1.00
  YS02006553YS02006556 CONDUIT    714.82     0  03:46      0.91    0.61    1.00
  YS02006556YS02006558 CONDUIT    712.65     0  03:46      0.91    0.56    1.00
  YSB6556YSB1171       CONDUIT     39.49     0  02:33      0.12    0.04    0.81
  YS02001907YS02006553 CONDUIT    713.67     0  03:46      0.79    0.84    1.00
  YS02006558YS02006561 CONDUIT   1149.25     0  02:45      4.06    2.54    1.00
  YS02001633YS02163601 CONDUIT    486.61     0  02:24      0.62    0.51    1.00
  YS02001644YS02001647 CONDUIT    742.48     0  02:24      0.95    0.44    1.00
  YS02001745YS02001748 CONDUIT    467.53     0  02:21      1.50    0.18    0.96
  YS02001748YS02001751 CONDUIT    458.31     0  02:58      1.06    0.23    1.00
  YS02001751YS02001754 CONDUIT    458.01     0  02:59      0.90    0.22    1.00
  YS02001754YS02001757 CONDUIT    457.89     0  03:01      0.58    0.18    1.00
  YS02001882YS02001884 CONDUIT     23.66     0  02:22      0.12    0.03    1.00
  YS02001884YS02001887 CONDUIT     25.14     0  02:21      0.09    0.03    1.00
  YS02001890YS02001895 CONDUIT    524.82     0  02:27      0.67    0.24    1.00
  YS02001895YS02001898 CONDUIT    526.01     0  02:27      0.67    0.91    1.00
  YS02001898YS02001901 CONDUIT    524.77     0  02:27      0.67    0.34    1.00
  YS02001901YS02001904 CONDUIT    523.55     0  02:27      0.67    0.81    1.00
  YS02001904YS02001907 CONDUIT    523.50     0  02:28      0.67    0.18    1.00
  YS02001887YS02001890 CONDUIT    652.91     0  02:47      0.83    1.12    1.00
  YS02001652YS02001649 CONDUIT    513.12     0  02:46      0.65    0.25    1.00
  YS02001655YS02001652 CONDUIT    511.95     0  02:46      0.96    0.25    1.00
  YS02001658YS02001655 CONDUIT    511.08     0  02:46      1.22    0.22    1.00
  YS02001661YS02001658 CONDUIT    515.67     0  02:34      1.58    0.20    1.00
  YS02001664YS02001661 CONDUIT    771.91     0  02:32      1.67    0.24    0.76
  YSB1154YSB6556       CONDUIT     39.56     0  02:32      0.15    0.07    0.70
  YSB1174YSB1171       CONDUIT     32.02     0  02:29      0.10    0.05    0.82
  YSB1171HS02004479    CONDUIT     70.63     0  02:32      0.54    0.05    0.66
  HS02004881HS02006253 CONDUIT    130.87     0  02:33      2.65    0.03    0.07
  YS02001793JiankangQianchi CONDUIT   1250.90     0  02:47     20.71    0.10    1.00
  YS02001757CaochengTiaoxuchi CONDUIT   2133.97     0  02:29      3.34    0.94    1.00
  WSF200WS02003060     CONDUIT    499.19     0  02:41      2.17    0.11    0.26
  1                    CONDUIT    448.70     0  02:45      2.66    0.16    0.27
  CC-Pump-1            PUMP       200.00     0  01:47              1.00
  CC-Pump-2            PUMP       200.00     0  01:47              1.00
  JK-Pump-1            PUMP       300.00     0  00:00              1.00
  JK-Pump-2            PUMP       683.00     0  00:00              1.00
  XR-Pump-1            PUMP        95.00     0  00:00              1.00
  XR-Pump-2            PUMP         0.00     0  00:00              0.00
  XR-Pump-3            PUMP         0.00     0  00:00              0.00
  XR-Pump-4            PUMP         0.00     0  00:00              0.00
  3                    WEIR       437.05     0  02:33                      0.26
  5                    WEIR       534.82     0  02:36                      0.30
  6                    WEIR       170.99     0  02:44                      0.14
  
  
  ***************************
  Flow Classification Summary
  ***************************
  
  -------------------------------------------------------------------------------------
                      Adjusted    ---------- Fraction of Time in Flow Class ---------- 
                       /Actual         Up    Down  Sub   Sup   Up    Down  Norm  Inlet 
  Conduit               Length    Dry  Dry   Dry   Crit  Crit  Crit  Crit  Ltd   Ctrl  
  -------------------------------------------------------------------------------------
  WS02003066WSF200        1.00   0.14  0.00  0.00  0.00  0.86  0.00  0.00  0.76  0.00
  WS02006287WS02006284    1.00   0.05  0.02  0.00  0.51  0.42  0.00  0.00  0.64  0.00
  WS02006284WS02006280    1.00   0.06  0.00  0.00  0.00  0.00  0.00  0.94  0.00  0.00
  WS02006280WS02006229    1.00   0.06  0.00  0.00  0.00  0.00  0.00  0.94  0.00  0.00
  WS02006229WS02006228    1.00   0.00  0.00  0.00  0.99  0.00  0.00  0.01  0.00  0.00
  WS02006256WS02006235    1.00   0.00  0.00  0.00  0.11  0.89  0.00  0.00  0.01  0.00
  WS02006253WS02006251    1.00   0.02  0.03  0.00  0.88  0.00  0.07  0.00  0.00  0.00
  WS02006252WS02006251    1.00   0.11  0.00  0.00  0.00  0.00  0.89  0.00  0.00  0.00
  WS02006251WS02006249    1.00   0.00  0.00  0.00  1.00  0.00  0.00  0.00  0.20  0.00
  WS02006249WS02006248    1.00   0.00  0.06  0.00  0.86  0.00  0.07  0.00  0.00  0.00
  WS02006248WS02006247    1.00   0.07  0.00  0.00  0.92  0.00  0.00  0.02  0.02  0.00
  WS02006247WS02006245    1.00   0.07  0.00  0.00  0.89  0.00  0.00  0.04  0.00  0.00
  WS02006245WS02006243    1.00   0.07  0.00  0.00  0.86  0.00  0.00  0.07  0.00  0.00
  WS02006243WS02006242    1.00   0.07  0.00  0.00  0.89  0.00  0.00  0.03  0.66  0.00
  WS02006242WS02006240    1.00   0.00  0.08  0.00  0.92  0.00  0.00  0.00  0.20  0.00
  WS02006240WS02006239    1.00   0.00  0.00  0.00  0.91  0.00  0.00  0.09  0.00  0.00
  WS02006239WS02006238    1.00   0.00  0.01  0.00  0.99  0.00  0.00  0.00  0.18  0.00
  WS02006238WS02006235    1.00   0.00  0.00  0.00  1.00  0.00  0.00  0.00  0.00  0.00
  WS02006235WS02006234    1.00   0.08  0.00  0.00  0.89  0.00  0.02  0.01  0.00  0.00
  WS02006234WS02006232    1.00   0.00  0.00  0.00  1.00  0.00  0.00  0.00  0.16  0.00
  WS02006232WS02006231    1.00   0.00  0.00  0.00  0.99  0.00  0.00  0.00  0.00  0.00
  WS02006231WS02006230    1.00   0.00  0.00  0.00  0.33  0.00  0.67  0.00  0.00  0.00
  WS02006230WS02006229    1.00   0.00  0.00  0.00  0.99  0.00  0.00  0.01  0.02  0.00
  WS02006228WS02006109    1.00   0.00  0.00  0.00  1.00  0.00  0.00  0.00  0.00  0.00
  WS02006116WS02004401    1.00   0.04  0.00  0.00  0.96  0.00  0.00  0.00  0.00  0.00
  WS02006115WS02006116    1.00   0.04  0.00  0.00  0.91  0.00  0.00  0.04  0.00  0.00
  WS02006113WS02006111    1.00   0.03  0.00  0.00  0.01  0.96  0.00  0.00  0.09  0.00
  WS02006112WS02006115    1.00   0.03  0.02  0.00  0.95  0.00  0.00  0.00  0.00  0.00
  WS02006111WS02006112    1.00   0.03  0.00  0.00  0.97  0.00  0.00  0.00  0.93  0.00
  WS02006110WS02006113    1.00   0.01  0.02  0.00  0.97  0.00  0.00  0.00  0.00  0.00
  WS02006109WS02006110    1.00   0.00  0.01  0.00  0.99  0.00  0.00  0.00  0.00  0.00
  WS02004411WS02004412    1.00   0.10  0.00  0.00  0.90  0.00  0.00  0.00  0.00  0.00
  WS02004401WS02004402    1.00   0.05  0.00  0.00  0.95  0.00  0.00  0.00  0.04  0.00
  WS02004413WS02003067    1.00   0.10  0.02  0.00  0.00  0.00  0.87  0.00  0.00  0.00
  WS02004412WS02004413    1.00   0.10  0.00  0.00  0.89  0.00  0.00  0.00  0.00  0.00
  WS02004410WS02004411    1.00   0.10  0.00  0.00  0.90  0.00  0.00  0.00  0.00  0.00
  WS02004409WS02004410    1.00   0.10  0.00  0.00  0.90  0.00  0.00  0.00  0.00  0.00
  WS02004407WS02004409    1.00   0.10  0.00  0.00  0.89  0.01  0.00  0.00  0.80  0.00
  WS02004406WS02004407    1.00   0.00  0.10  0.00  0.90  0.00  0.00  0.00  0.00  0.00
  WS02004405WS02004406    1.00   0.00  0.00  0.00  1.00  0.00  0.00  0.00  0.04  0.00
  WS02004404WS02004405    1.00   0.00  0.00  0.00  1.00  0.00  0.00  0.00  0.00  0.00
  WS02004403WS02004404    1.00   0.00  0.05  0.00  0.95  0.00  0.00  0.00  0.04  0.00
  WS02004402WS02004403    1.00   0.05  0.00  0.00  0.95  0.00  0.00  0.00  0.00  0.00
  WS02004139WS02001211    1.00   0.00  0.00  0.00  1.00  0.00  0.00  0.00  0.00  0.00
  WS02004138WS02004139    1.00   0.00  0.00  0.00  0.00  0.00  0.00  1.00  0.00  0.00
  WS02003067WS02003066    1.00   0.13  0.01  0.00  0.86  0.00  0.00  0.00  0.00  0.00
  WS02001213WS02003059    1.00   0.00  0.00  0.00  0.99  0.00  0.00  0.00  0.00  0.00
  WS02001212WS02001213    1.00   0.30  0.19  0.00  0.51  0.00  0.00  0.00  0.42  0.00
  WS02001211WS02001212    1.00   0.00  0.30  0.00  0.70  0.00  0.00  0.00  0.77  0.00
  WS02003072WS02003073    1.00   0.00  0.00  0.00  0.00  0.00  0.00  1.00  0.00  0.00
  WS02003069WS02003072    1.00   0.00  0.00  0.00  1.00  0.00  0.00  0.00  0.91  0.00
  WS02003060WS02003069    1.00   0.00  0.00  0.00  0.98  0.02  0.00  0.00  0.81  0.00
  WS02003059WS02003060    1.00   0.00  0.00  0.00  1.00  0.00  0.00  0.00  0.08  0.00
  HS02004901HS02004770    1.00   0.05  0.00  0.00  0.95  0.00  0.00  0.00  0.00  0.00
  HS02004876HS02004881    1.00   0.01  0.00  0.00  0.80  0.19  0.00  0.00  0.00  0.00
  HS02004870HS02004876    1.00   0.00  0.00  0.00  0.99  0.00  0.00  0.00  0.95  0.00
  HS02004842HS02004848    1.00   0.00  0.05  0.00  0.94  0.00  0.00  0.00  0.56  0.00
  HS02004837HS02004842    1.00   0.00  0.00  0.00  1.00  0.00  0.00  0.00  0.11  0.00
  HS02004830HS02004837    1.00   0.00  0.00  0.00  1.00  0.00  0.00  0.00  0.99  0.00
  HS02004824HS02004830    1.00   0.00  0.00  0.00  1.00  0.00  0.00  0.00  0.03  0.00
  HS02004817HS02004824    1.00   0.00  0.00  0.00  1.00  0.00  0.00  0.00  0.94  0.00
  HS02004770HS02004777    1.00   0.00  0.05  0.00  0.95  0.00  0.00  0.00  0.02  0.00
  HS02004799HS02004480    1.00   0.00  0.02  0.00  0.93  0.00  0.05  0.00  0.00  0.00
  HS02004792HS02004799    1.00   0.00  0.00  0.00  0.99  0.01  0.00  0.00  0.98  0.00
  HS02004788HS02004792    1.00   0.00  0.00  0.00  0.99  0.01  0.00  0.00  0.98  0.00
  HS02004785HS02004788    1.00   0.00  0.00  0.00  1.00  0.00  0.00  0.00  0.00  0.00
  HS02004777HS02004785    1.00   0.00  0.00  0.00  1.00  0.00  0.00  0.00  0.12  0.00
  HS02004480HS02004478    1.00   0.06  0.00  0.00  0.56  0.00  0.00  0.38  0.00  0.00
  HS02004479HS02004480    1.00   0.02  0.00  0.00  0.98  0.00  0.00  0.00  0.11  0.00
  HS02004862HS02004870    1.00   0.00  0.00  0.00  1.00  0.00  0.00  0.00  0.03  0.00
  HS02004848HS02004852    1.00   0.06  0.00  0.00  0.94  0.00  0.00  0.00  0.71  0.00
  HS02004856HS02004862    1.00   0.00  0.07  0.00  0.93  0.00  0.00  0.00  0.83  0.00
  HS02004852HS02004856    1.00   0.05  0.00  0.00  0.94  0.00  0.00  0.00  0.77  0.00
  HS02004802HS02004478    1.00   0.06  0.00  0.00  0.94  0.00  0.00  0.00  0.02  0.00
  HS02004478WS02006287    1.00   0.07  0.00  0.00  0.62  0.31  0.00  0.00  0.65  0.00
  HS02004817HS02004807    1.00   0.00  0.06  0.00  0.94  0.00  0.00  0.00  0.01  0.00
  HS02004807HS02004802    1.00   0.06  0.00  0.00  0.94  0.00  0.00  0.01  0.00  0.00
  YS02001759YS02001757    1.00   0.00  0.00  0.00  1.00  0.00  0.00  0.00  0.15  0.00
  YS02001762YS02001759    1.00   0.00  0.00  0.00  1.00  0.00  0.00  0.00  0.03  0.00
  YS02001765YS02001762    1.00   0.00  0.00  0.00  1.00  0.00  0.00  0.00  0.13  0.00
  YS02001770YS02001767    1.00   0.00  0.00  0.00  1.00  0.00  0.00  0.00  0.00  0.00
  YS02001774YS02001770    1.00   0.00  0.06  0.00  0.94  0.00  0.00  0.00  0.03  0.00
  YS02001779YS02001774    1.00   0.00  0.00  0.00  1.00  0.00  0.00  0.00  0.18  0.00
  YS02001649YS02001757    1.00   0.00  0.00  0.00  1.00  0.00  0.00  0.00  0.15  0.00
  YS02001767YS02001765    1.00   0.00  0.00  0.00  1.00  0.00  0.00  0.00  0.00  0.00
  YS02006561YS02001783    1.00   0.08  0.00  0.00  0.29  0.63  0.00  0.00  0.44  0.00
  YS02001783YS02001784    1.00   0.00  0.08  0.00  0.92  0.00  0.00  0.00  0.01  0.00
  YS02001784YS02001785    1.00   0.00  0.00  0.00  1.00  0.00  0.00  0.00  0.17  0.00
  YS02001788YS02001790    1.00   0.00  0.00  0.00  0.24  0.76  0.00  0.00  0.42  0.00
  YS02001790YS02001791    1.00   0.00  0.00  0.00  0.12  0.88  0.00  0.00  0.58  0.00
  YS02001791YS02001793    1.00   0.00  0.00  0.00  0.13  0.87  0.00  0.00  0.01  0.00
  YS02001910YS02001907    1.00   0.00  0.00  0.00  0.99  0.00  0.00  0.01  0.12  0.00
  YS02001786YS02001788    1.00   0.00  0.00  0.00  0.32  0.68  0.00  0.00  0.00  0.00
  YS02001915YS02001910    1.00   0.00  0.00  0.00  0.99  0.01  0.00  0.00  0.15  0.00
  YS02001918YS02001915    1.00   0.00  0.00  0.00  0.99  0.01  0.00  0.00  0.53  0.00
  YS02001923YS02001920    1.00   0.00  0.00  0.00  1.00  0.00  0.00  0.00  0.79  0.00
  YS02001926YS02001923    1.00   0.00  0.03  0.00  0.22  0.00  0.75  0.00  0.00  0.00
  YS02001929YS02001926    1.00   0.00  0.05  0.00  0.95  0.00  0.00  0.00  0.71  0.00
  YS02001920YS02001918    1.00   0.00  0.00  0.00  1.00  0.00  0.00  0.00  0.00  0.00
  YS02001629YS02163301    1.00   0.06  0.00  0.00  0.93  0.00  0.00  0.00  0.00  0.00
  YS02001619YS02001622    1.00   0.05  0.00  0.00  0.95  0.00  0.00  0.00  0.00  0.00
  YS02001622YS02001625    1.00   0.06  0.00  0.00  0.94  0.00  0.00  0.00  0.04  0.00
  YS02001625YS02001629    1.00   0.06  0.03  0.00  0.89  0.00  0.03  0.00  0.00  0.00
  YS02163301YS02001633    1.00   0.00  0.06  0.00  0.94  0.00  0.00  0.00  0.00  0.00
  YS02163601YS02164001    1.00   0.00  0.04  0.00  0.96  0.00  0.00  0.00  0.00  0.00
  YS02164001YS02001641    1.00   0.01  0.03  0.00  0.96  0.00  0.00  0.00  0.06  0.00
  YS02001641YS02001644    1.00   0.00  0.00  0.00  1.00  0.00  0.00  0.00  0.00  0.00
  YS02001647YS02001649    1.00   0.00  0.07  0.00  0.92  0.00  0.00  0.00  0.01  0.00
  YS02006553YS02006556    1.00   0.01  0.00  0.00  0.99  0.00  0.00  0.00  0.03  0.00
  YS02006556YS02006558    1.00   0.00  0.00  0.00  1.00  0.00  0.00  0.00  0.00  0.00
  YSB6556YSB1171          1.00   0.02  0.03  0.00  0.95  0.00  0.00  0.00  0.00  0.00
  YS02001907YS02006553    1.00   0.00  0.01  0.00  0.99  0.00  0.00  0.00  0.00  0.00
  YS02006558YS02006561    1.00   0.08  0.00  0.00  0.21  0.71  0.00  0.00  0.47  0.00
  YS02001633YS02163601    1.00   0.00  0.01  0.00  0.99  0.00  0.00  0.00  0.15  0.00
  YS02001644YS02001647    1.00   0.00  0.07  0.00  0.93  0.00  0.00  0.00  0.00  0.00
  YS02001745YS02001748    1.00   0.00  0.00  0.00  0.84  0.01  0.00  0.15  0.04  0.00
  YS02001748YS02001751    1.00   0.00  0.00  0.00  0.95  0.05  0.00  0.00  0.15  0.00
  YS02001751YS02001754    1.00   0.00  0.00  0.00  0.91  0.00  0.00  0.09  0.02  0.00
  YS02001754YS02001757    1.00   0.00  0.00  0.00  1.00  0.00  0.00  0.00  0.18  0.00
  YS02001882YS02001884    1.00   0.06  0.00  0.00  0.93  0.00  0.00  0.00  0.00  0.00
  YS02001884YS02001887    1.00   0.03  0.02  0.00  0.95  0.00  0.00  0.00  0.00  0.00
  YS02001890YS02001895    1.00   0.00  0.07  0.00  0.93  0.00  0.00  0.00  0.00  0.00
  YS02001895YS02001898    1.00   0.07  0.00  0.00  0.91  0.00  0.02  0.00  0.00  0.00
  YS02001898YS02001901    1.00   0.07  0.00  0.00  0.93  0.00  0.00  0.00  0.01  0.00
  YS02001901YS02001904    1.00   0.07  0.00  0.00  0.93  0.00  0.00  0.00  0.00  0.00
  YS02001904YS02001907    1.00   0.00  0.07  0.00  0.93  0.00  0.00  0.00  0.00  0.00
  YS02001887YS02001890    1.00   0.00  0.00  0.00  0.98  0.00  0.01  0.00  0.00  0.00
  YS02001652YS02001649    1.00   0.00  0.00  0.00  1.00  0.00  0.00  0.00  0.16  0.00
  YS02001655YS02001652    1.00   0.00  0.00  0.00  0.91  0.00  0.00  0.09  0.02  0.00
  YS02001658YS02001655    1.00   0.00  0.06  0.00  0.89  0.05  0.00  0.00  0.08  0.00
  YS02001661YS02001658    1.00   0.06  0.00  0.00  0.84  0.10  0.00  0.00  0.05  0.00
  YS02001664YS02001661    1.00   0.05  0.00  0.00  0.84  0.11  0.00  0.00  0.17  0.00
  YSB1154YSB6556          1.00   0.05  0.00  0.00  0.95  0.00  0.00  0.00  0.02  0.00
  YSB1174YSB1171          1.00   0.02  0.02  0.00  0.96  0.00  0.00  0.00  0.00  0.00
  YSB1171HS02004479       1.00   0.02  0.00  0.00  0.98  0.00  0.00  0.01  0.10  0.00
  HS02004881HS02006253    1.00   0.02  0.00  0.00  0.00  0.00  0.00  0.98  0.00  0.00
  YS02001793JiankangQianchi    1.00   0.00  0.00  0.00  0.20  0.80  0.00  0.00  0.07  0.00
  YS02001757CaochengTiaoxuchi    1.00   0.00  0.11  0.00  0.80  0.09  0.00  0.00  0.00  0.00
  WSF200WS02003060        1.00   0.00  0.14  0.00  0.00  0.86  0.00  0.00  0.57  0.00
  1                       1.00   0.00  0.00  0.00  0.00  1.00  0.00  0.00  0.27  0.00
  
  
  *************************
  Conduit Surcharge Summary
  *************************
  
  ----------------------------------------------------------------------------
                                                           Hours        Hours 
                         --------- Hours Full --------   Above Full   Capacity
  Conduit                Both Ends  Upstream  Dnstream   Normal Flow   Limited
  ----------------------------------------------------------------------------
  WS02006229WS02006228        0.52      0.56      0.52      1.07         0.52
  WS02006256WS02006235        0.01      0.01      6.50      6.48         0.01
  WS02006252WS02006251        6.23      6.23      6.25      6.25         0.01
  WS02006235WS02006234        0.01      0.01      0.01      0.48         0.01
  WS02006231WS02006230        0.01      0.01      0.01      0.66         0.01
  WS02006230WS02006229        0.76      0.77      0.77      4.03         0.01
  WS02006228WS02006109        0.54      0.68      0.54      1.47         0.54
  WS02006112WS02006115        0.01      0.01      0.15      0.01         0.01
  WS02006111WS02006112        0.01      0.01      1.21      0.01         0.01
  WS02006110WS02006113        0.01      0.01      0.61      0.01         0.01
  WS02006109WS02006110        0.01      0.01      0.68      0.01         0.01
  WS02004404WS02004405        0.01      0.01      0.01      2.24         0.01
  HS02004876HS02004881        0.01      0.01      0.01      0.44         0.01
  HS02004785HS02004788        0.01      0.01      0.01      0.37         0.01
  HS02004480HS02004478        0.01      0.01      0.01      0.92         0.01
  YS02001759YS02001757        6.04      6.04      6.12      0.01         0.01
  YS02001762YS02001759        6.02      6.02      6.04      0.01         0.01
  YS02001765YS02001762        6.00      6.00      6.02      0.01         0.01
  YS02001770YS02001767        5.97      5.97      5.98      0.39         0.91
  YS02001774YS02001770        5.91      5.91      6.02      0.01         0.01
  YS02001779YS02001774        5.79      5.79      6.02      0.01         0.01
  YS02001649YS02001757        6.03      6.03      6.12      0.01         0.01
  YS02001767YS02001765        5.98      5.98      6.00      0.01         0.01
  YS02006561YS02001783        1.25      1.25      1.51      0.01         0.01
  YS02001783YS02001784        1.47      1.51      1.47      1.83         1.47
  YS02001784YS02001785        1.35      1.47      1.35      2.68         1.35
  YS02001788YS02001790        0.72      0.72      0.82      0.01         0.01
  YS02001790YS02001791        0.81      0.82      0.81      1.46         0.81
  YS02001791YS02001793        0.81      0.81      0.98      0.01         0.01
  YS02001910YS02001907        1.55      1.55      2.12      0.01         0.01
  YS02001786YS02001788        0.72      1.35      0.72      2.26         0.72
  YS02001915YS02001910        1.39      1.39      1.55      0.01         0.01
  YS02001918YS02001915        1.23      1.23      1.39      0.01         0.01
  YS02001923YS02001920        1.08      1.08      1.26      0.01         0.01
  YS02001926YS02001923        0.01      0.01      0.01      0.01         0.01
  YS02001929YS02001926        0.01      0.01      0.01      0.01         0.01
  YS02001920YS02001918        1.23      1.23      1.26      0.01         0.01
  YS02001629YS02163301        5.93      5.93      5.97      0.01         0.01
  YS02001619YS02001622        5.72      5.72      5.72      0.01         0.02
  YS02001622YS02001625        5.72      5.72      5.85      0.01         0.01
  YS02001625YS02001629        5.71      5.71      5.85      0.01         0.01
  YS02163301YS02001633        5.97      5.97      6.00      0.01         0.01
  YS02163601YS02164001        6.00      6.00      6.03      0.01         0.01
  YS02164001YS02001641        6.00      6.00      6.01      0.01         0.02
  YS02001641YS02001644        6.01      6.01      6.01      2.00         2.25
  YS02001647YS02001649        5.82      5.82      6.03      0.01         0.01
  YS02006553YS02006556        1.76      1.76      2.21      0.01         0.01
  YS02006556YS02006558        1.90      1.90      2.28      0.01         0.01
  YSB6556YSB1171              0.01      0.01      0.05      0.01         0.01
  YS02001907YS02006553        2.70      2.70      2.91      0.01         0.01
  YS02006558YS02006561        1.33      1.72      1.33      2.53         1.33
  YS02001633YS02163601        5.99      5.99      6.03      0.01         0.01
  YS02001644YS02001647        5.82      5.82      6.01      0.01         0.01
  YS02001745YS02001748        0.01      0.01      5.04      0.01         0.01
  YS02001748YS02001751        5.40      5.40      5.70      0.01         0.01
  YS02001751YS02001754        5.70      5.70      5.79      0.01         0.01
  YS02001754YS02001757        5.81      5.81      6.12      0.01         0.01
  YS02001882YS02001884        1.41      1.41      1.43      0.01         0.01
  YS02001884YS02001887        1.47      1.47      1.49      0.01         0.01
  YS02001890YS02001895        1.38      1.38      1.57      0.01         0.01
  YS02001895YS02001898        1.37      1.37      1.38      0.01         0.01
  YS02001898YS02001901        1.39      1.39      1.46      0.01         0.01
  YS02001901YS02001904        1.44      1.44      1.46      0.01         0.01
  YS02001904YS02001907        1.44      1.44      2.22      0.01         0.01
  YS02001887YS02001890        1.52      1.52      1.54      0.52         0.01
  YS02001652YS02001649        5.83      5.83      6.03      0.01         0.01
  YS02001655YS02001652        5.72      5.72      5.81      0.01         0.01
  YS02001658YS02001655        5.12      5.12      5.72      0.01         0.01
  YS02001661YS02001658        0.10      0.10      5.12      0.01         0.01
  YS02001664YS02001661        0.01      0.01      1.14      0.01         0.01
  YS02001793JiankangQianchi        0.93      0.93      1.64      0.01         0.01
  YS02001757CaochengTiaoxuchi        5.31      5.31      6.12      0.01         0.01
  
  
  ***************
  Pumping Summary
  ***************
  
  ---------------------------------------------------------------------------------------------------------
                                                  Min       Avg       Max     Total     Power    % Time Off
                        Percent   Number of      Flow      Flow      Flow    Volume     Usage    Pump Curve
  Pump                 Utilized   Start-Ups       LPS       LPS       LPS  10^6 ltr     Kw-hr    Low   High
  ---------------------------------------------------------------------------------------------------------
  CC-Pump-1               78.87           1      0.00    197.20    200.00     4.508      8.53    0.0   10.2
  CC-Pump-2               78.87           1      0.00    197.20    200.00     4.508      8.53    0.0   10.2
  JK-Pump-1              100.00           1      0.00    230.31    300.00     5.690    108.62    0.0    0.0
  JK-Pump-2              100.00           1      0.00    384.42    683.00     9.191    161.00    0.0   98.0
  XR-Pump-1              100.00           1      0.00     95.00     95.00     2.736     13.21    0.0    0.0
  XR-Pump-2                0.00           0      0.00      0.00      0.00     0.000      0.00    0.0    0.0
  XR-Pump-3                0.00           0      0.00      0.00      0.00     0.000      0.00    0.0    0.0
  XR-Pump-4                0.00           0      0.00      0.00      0.00     0.000      0.00    0.0    0.0
  
  
  ***************************
  Link Pollutant Load Summary
  ***************************
  
  ------------------------------------------------------------------------------------------
                                 COD            SS            TN            TP         NH4-N
  Link                            kg            kg            kg            kg            kg
  ------------------------------------------------------------------------------------------
  WS02003066WSF200           381.642       732.468        11.533         1.106         6.267
  WS02006287WS02006284       384.729       742.891        11.668         1.121         6.345
  WS02006284WS02006280       385.221       743.687        11.715         1.127         6.374
  WS02006280WS02006229       385.202       743.658        11.713         1.127         6.373
  WS02006229WS02006228       367.964       705.540        11.273         1.085         6.143
  WS02006256WS02006235       240.046       466.334         4.634         0.334         2.262
  WS02006253WS02006251        65.794       132.313         1.369         0.098         0.666
  WS02006252WS02006251       821.504      1544.245        16.035         1.099         7.731
  WS02006251WS02006249       153.788       290.653         3.020         0.208         1.458
  WS02006249WS02006248       153.528       290.190         3.014         0.208         1.455
  WS02006248WS02006247       153.353       289.880         3.010         0.207         1.453
  WS02006247WS02006245       153.134       289.489         3.005         0.207         1.451
  WS02006245WS02006243       152.843       288.966         2.999         0.207         1.447
  WS02006243WS02006242       152.548       288.440         2.993         0.206         1.445
  WS02006242WS02006240       152.109       287.655         2.983         0.205         1.440
  WS02006240WS02006239       151.847       287.184         2.978         0.205         1.437
  WS02006239WS02006238       151.526       286.597         2.971         0.205         1.434
  WS02006238WS02006235       151.467       286.502         2.970         0.204         1.433
  WS02006235WS02006234        66.409       131.287         1.374         0.105         0.678
  WS02006234WS02006232        67.225       132.939         1.392         0.107         0.687
  WS02006232WS02006231        68.424       135.345         1.419         0.109         0.701
  WS02006231WS02006230        69.299       137.091         1.439         0.110         0.711
  WS02006230WS02006229        71.621       141.703         1.492         0.115         0.737
  WS02006228WS02006109       367.381       704.575        11.225         1.079         6.113
  WS02006116WS02004401       387.685       742.234        12.031         1.167         6.576
  WS02006115WS02006116       388.180       743.043        12.076         1.173         6.604
  WS02006113WS02006111       374.635       716.173        11.935         1.168         6.557
  WS02006112WS02006115       388.668       743.812        12.119         1.178         6.631
  WS02006111WS02006112       374.510       715.984        11.920         1.166         6.548
  WS02006110WS02006113       374.771       716.379        11.948         1.169         6.566
  WS02006109WS02006110       375.433       717.423        12.009         1.177         6.604
  WS02004411WS02004412       383.124       734.702        11.675         1.124         6.357
  WS02004401WS02004402       387.019       741.163        11.975         1.160         6.541
  WS02004413WS02003067       382.136       733.325        11.566         1.110         6.288
  WS02004412WS02004413       382.553       733.779        11.626         1.118         6.326
  WS02004410WS02004411       383.535       735.381        11.709         1.128         6.378
  WS02004409WS02004410       383.829       735.837        11.737         1.132         6.395
  WS02004407WS02004409       384.133       736.366        11.760         1.134         6.409
  WS02004406WS02004407       384.307       736.700        11.768         1.135         6.414
  WS02004405WS02004406       385.772       739.027        11.900         1.152         6.496
  WS02004404WS02004405       386.433       740.195        11.942         1.156         6.521
  WS02004403WS02004404       385.736       739.082        11.869         1.147         6.475
  WS02004402WS02004403       386.336       740.040        11.920         1.153         6.507
  WS02004139WS02001211        83.508       142.468         6.257         0.759         3.846
  WS02004138WS02004139       372.348       623.641        29.446         3.582        18.117
  WS02003067WS02003066       381.641       732.439        11.536         1.107         6.270
  WS02001213WS02003059        35.141        65.098         1.607         0.178         0.939
  WS02001212WS02001213        32.476        61.066         1.315         0.141         0.755
  WS02001211WS02001212        31.857        59.725         1.314         0.142         0.757
  WS02003072WS02003073       462.525       851.006        21.419         2.369        12.525
  WS02003069WS02003072       463.634       852.556        21.556         2.387        12.611
  WS02003060WS02003069       461.864       849.744        21.382         2.365        12.502
  WS02003059WS02003060        39.524        73.873         1.713         0.187         0.994
  HS02004901HS02004770        16.447        32.330         0.311         0.023         0.147
  HS02004876HS02004881        55.977       112.427         1.207         0.088         0.591
  HS02004870HS02004876        42.441        85.114         0.959         0.071         0.473
  HS02004842HS02004848         7.980        15.509         0.164         0.011         0.076
  HS02004837HS02004842        12.590        22.825         0.633         0.070         0.370
  HS02004830HS02004837        77.181       136.676         4.848         0.572         2.939
  HS02004824HS02004830        77.969       137.952         4.922         0.581         2.985
  HS02004817HS02004824       109.836       202.912         5.571         0.623         3.301
  HS02004770HS02004777        62.580       124.593         1.280         0.088         0.594
  HS02004799HS02004480       201.774       391.798         5.050         0.439         2.587
  HS02004792HS02004799       183.539       354.296         4.754         0.423         2.453
  HS02004788HS02004792       101.165       195.637         3.050         0.284         1.626
  HS02004785HS02004788        64.058       126.957         1.434         0.107         0.690
  HS02004777HS02004785        63.371       125.846         1.371         0.099         0.651
  HS02004480HS02004478       253.206       494.589         5.926         0.502         3.003
  HS02004479HS02004480        55.053       108.577         1.200         0.104         0.617
  HS02004862HS02004870        32.156        63.618         0.756         0.059         0.375
  HS02004848HS02004852        13.258        26.100         0.269         0.018         0.125
  HS02004856HS02004862        22.015        44.162         0.438         0.029         0.206
  HS02004852HS02004856        13.264        26.108         0.269         0.018         0.125
  HS02004802HS02004478       132.234       249.438         5.799         0.625         3.377
  HS02004478WS02006287       384.908       743.178        11.685         1.123         6.355
  HS02004817HS02004807       108.598       200.927         5.452         0.608         3.226
  HS02004807HS02004802       132.490       249.843         5.833         0.630         3.398
  YS02001759YS02001757       516.926       973.758        10.126         0.705         4.935
  YS02001762YS02001759       187.030       348.236         3.980         0.278         1.968
  YS02001765YS02001762       187.801       350.547         4.013         0.281         1.987
  YS02001770YS02001767       188.303       353.831         3.807         0.250         1.848
  YS02001774YS02001770       249.556       493.562         4.799         0.318         2.319
  YS02001779YS02001774       248.310       491.095         4.857         0.328         2.362
  YS02001649YS02001757       371.452       671.456         7.394         0.524         3.532
  YS02001767YS02001765       189.038       353.652         4.050         0.284         2.007
  YS02006561YS02001783      1200.429      2257.132        24.842         1.844        12.321
  YS02001783YS02001784      1200.389      2257.111        24.839         1.843        12.319
  YS02001784YS02001785      1207.945      2269.270        25.568         1.934        12.775
  YS02001788YS02001790      1208.681      2270.555        25.643         1.944        12.823
  YS02001790YS02001791      1209.871      2272.626        25.747         1.957        12.887
  YS02001791YS02001793      1209.909      2272.745        25.744         1.957        12.885
  YS02001910YS02001907       485.084       908.831        11.210         0.840         5.694
  YS02001786YS02001788      1208.249      2269.847        25.598         1.938        12.794
  YS02001915YS02001910       485.099       908.827        11.162         0.833         5.662
  YS02001918YS02001915       235.006       421.725         6.067         0.535         3.222
  YS02001923YS02001920       211.608       382.850         4.030         0.284         1.957
  YS02001926YS02001923       209.556       379.306         3.936         0.274         1.901
  YS02001929YS02001926       208.677       377.804         3.884         0.268         1.870
  YS02001920YS02001918       232.467       416.461         5.992         0.529         3.181
  YS02001629YS02163301        97.978       174.441         2.056         0.135         0.962
  YS02001619YS02001622       220.812       409.946         4.479         0.296         2.099
  YS02001622YS02001625       219.682       408.159         4.451         0.294         2.086
  YS02001625YS02001629        96.610       171.264         2.042         0.133         0.954
  YS02163301YS02001633       100.991       180.677         2.102         0.139         0.986
  YS02163601YS02164001       471.962       864.454         9.113         0.655         4.374
  YS02164001YS02001641       471.558       863.784         9.095         0.653         4.364
  YS02001641YS02001644       471.857       864.219         9.095         0.653         4.363
  YS02001647YS02001649       428.387       783.814         8.446         0.598         4.021
  YS02006553YS02006556       784.959      1461.185        16.668         1.267         8.359
  YS02006556YS02006558       785.080      1461.413        16.641         1.263         8.341
  YSB6556YSB1171              31.919        63.159         0.636         0.052         0.320
  YS02001907YS02006553       784.982      1461.237        16.678         1.268         8.366
  YS02006558YS02006561      1200.403      2257.058        24.841         1.843        12.321
  YS02001633YS02163601       472.589       865.406         9.091         0.650         4.357
  YS02001644YS02001647       435.875       798.165         8.574         0.608         4.083
  YS02001745YS02001748       303.742       579.098         6.020         0.376         2.893
  YS02001748YS02001751       303.341       578.339         6.060         0.382         2.921
  YS02001751YS02001754       302.403       576.795         6.044         0.382         2.914
  YS02001754YS02001757       303.257       578.093         6.213         0.405         3.024
  YS02001882YS02001884         3.828         6.692         0.076         0.006         0.038
  YS02001884YS02001887         6.995        12.455         0.137         0.011         0.068
  YS02001890YS02001895       533.065      1013.997         9.824         0.741         4.793
  YS02001895YS02001898       532.997      1013.970         9.819         0.741         4.790
  YS02001898YS02001901       532.861      1013.737         9.816         0.741         4.789
  YS02001901YS02001904       532.771      1013.660         9.823         0.742         4.794
  YS02001904YS02001907       533.116      1014.213         9.879         0.749         4.829
  YS02001887YS02001890       580.451      1108.527        10.700         0.810         5.224
  YS02001652YS02001649       262.629       495.949         5.232         0.378         2.457
  YS02001655YS02001652       263.426       497.189         5.253         0.380         2.467
  YS02001658YS02001655       263.230       496.862         5.172         0.368         2.413
  YS02001661YS02001658       264.079       498.258         5.192         0.370         2.422
  YS02001664YS02001661       276.893       519.156         5.486         0.389         2.556
  YSB1154YSB6556              31.505        62.510         0.587         0.046         0.289
  YSB1174YSB1171              21.613        42.982         0.428         0.035         0.213
  YSB1171HS02004479           55.012       108.513         1.202         0.104         0.619
  HS02004881HS02006253        62.843       126.438         1.336         0.096         0.653
  YS02001793JiankangQianchi      1210.218      2273.410        25.747         1.957        12.886
  YS02001757CaochengTiaoxuchi      1028.945      1913.581        20.404         1.399         9.853
  WSF200WS02003060           381.461       732.113        11.525         1.105         6.263
  1                          474.478       869.555        22.654         2.525        13.300
  CC-Pump-1                  410.786       772.180         8.018         0.549         3.866
  CC-Pump-2                  410.786       772.180         8.018         0.549         3.866
  JK-Pump-1                  255.224       495.716         4.929         0.355         2.406
  JK-Pump-2                  581.060      1128.580        11.221         0.809         5.477
  XR-Pump-1                  372.845       624.463        29.487         3.587        18.142
  XR-Pump-2                    0.000         0.000         0.000         0.000         0.000
  XR-Pump-3                    0.000         0.000         0.000         0.000         0.000
  XR-Pump-4                    0.000         0.000         0.000         0.000         0.000
  3                          733.705      1386.153        14.430         0.995         6.969
  5                          407.317       788.455         7.973         0.573         3.884
  6                          457.991       769.541        35.905         4.367        22.089
  

  Analysis begun on:  Thu Jul  8 15:38:59 2021
  Analysis ended on:  Thu Jul  8 15:39:00 2021
  Total elapsed time: 00:00:01