
  EPA STORM WATER MANAGEMENT MODEL - VERSION 5.1 (Build 5.3.0.dev0)
  --------------------------------------------------------------

  WARNING 04: minimum elevation drop used for Conduit WS02004404WS02004405
  WARNING 03: negative offset ignored for Link YS02001904YS02001907
  
  *********************************************************
  NOTE: The summary statistics displayed in this report are
  based on results found at every computational time step,  
  not just on results from each reporting time step.
  *********************************************************
  
  ****************
  Analysis Options
  ****************
  Flow Units ............... LPS
  Process Models:
    Rainfall/Runoff ........ YES
    RDII ................... NO
    Snowmelt ............... NO
    Groundwater ............ NO
    Flow Routing ........... YES
    Ponding Allowed ........ NO
    Water Quality .......... YES
  Infiltration Method ...... HORTON
  Flow Routing Method ...... DYNWAVE
  Surcharge Method ......... EXTRAN
  Starting Date ............ 08/28/2015 08:00:00
  Ending Date .............. 08/28/2015 16:00:00
  Antecedent Dry Days ...... 8.0
  Report Time Step ......... 00:01:00
  Wet Time Step ............ 00:01:00
  Dry Time Step ............ 00:01:00
  Routing Time Step ........ 5.00 sec
  Variable Time Step ....... YES
  Maximum Trials ........... 8
  Number of Threads ........ 4
  Head Tolerance ........... 0.001500 m
  
  
  **************************        Volume         Depth
  Runoff Quantity Continuity     hectare-m            mm
  **************************     ---------       -------
  Total Precipitation ......         6.825        14.943
  Evaporation Loss .........         0.000         0.000
  Infiltration Loss ........         1.122         2.457
  Surface Runoff ...........         4.791        10.489
  Final Storage ............         0.913         2.000
  Continuity Error (%) .....        -0.016
  
  
  **************************           COD            SS            TN            TP         NH4-N
  Runoff Quality Continuity             kg            kg            kg            kg            kg
  **************************    ----------    ----------    ----------    ----------    ----------
  Initial Buildup ..........     41378.656     70582.865      1804.177       168.684      1032.807
  Surface Buildup ..........        27.893        56.270         2.446         0.221         1.407
  Wet Deposition ...........         0.000         0.000         0.000         0.000         0.000
  Sweeping Removal .........         0.000         0.000         0.000         0.000         0.000
  Infiltration Loss ........       113.554       217.618         2.165         0.153         1.034
  BMP Removal ..............         0.000         0.000         0.000         0.000         0.000
  Surface Runoff ...........      4590.394      8690.260        88.537         6.081        42.150
  Remaining Buildup ........     36700.912     61728.012      1715.886       162.669       991.015
  Continuity Error (%) .....         0.004         0.005         0.002         0.001         0.002
  
  
  **************************        Volume        Volume
  Flow Routing Continuity        hectare-m      10^6 ltr
  **************************     ---------     ---------
  Dry Weather Inflow .......         0.630         6.296
  Wet Weather Inflow .......         4.790        47.899
  Groundwater Inflow .......         0.000         0.000
  RDII Inflow ..............         0.000         0.000
  External Inflow ..........         0.105         1.045
  External Outflow .........         2.427        24.272
  Flooding Loss ............         2.692        26.918
  Evaporation Loss .........         0.000         0.000
  Exfiltration Loss ........         0.000         0.000
  Initial Stored Volume ....         0.076         0.761
  Final Stored Volume ......         0.494         4.939
  Continuity Error (%) .....        -0.226
  
  
  **************************           COD            SS            TN            TP         NH4-N
  Quality Routing Continuity            kg            kg            kg            kg            kg
  **************************    ----------    ----------    ----------    ----------    ----------
  Dry Weather Inflow .......      1573.993      2518.389       151.103        18.888        94.440
  Wet Weather Inflow .......      4590.070      8689.807        88.529         6.080        42.146
  Groundwater Inflow .......         0.000         0.000         0.000         0.000         0.000
  RDII Inflow ..............         0.000         0.000         0.000         0.000         0.000
  External Inflow ..........       187.321       299.713        17.983         2.248        11.239
  External Outflow .........      2541.764      4597.341       113.096        12.280        65.795
  Flooding Loss ............      3149.478      5796.502       115.868        11.927        65.541
  Exfiltration Loss ........         0.000         0.000         0.000         0.000         0.000
  Mass Reacted .............         0.000         0.000         0.000         0.000         0.000
  Initial Stored Mass ......         0.000         0.000         0.000         0.000         0.000
  Final Stored Mass ........       427.371       726.457        21.391         2.352        12.559
  Continuity Error (%) .....         3.665         3.368         2.818         2.414         2.658
  
  
  *************************
  Highest Continuity Errors
  *************************
  Node YS02001884 (12.45%)
  Node HS02004842 (12.17%)
  Node WS02003059 (6.57%)
  Node HS02004817 (2.32%)
  Node YSB1171 (2.21%)
  
  
  ***************************
  Time-Step Critical Elements
  ***************************
  Link YS02001793JiankangQianchi (45.35%)
  Link WS02006280WS02006229 (28.96%)
  Link YS02006556YS02006558 (6.16%)
  Link YS02001791YS02001793 (2.31%)
  Link YS02006558YS02006561 (2.19%)
  
  
  ********************************
  Highest Flow Instability Indexes
  ********************************
  Link WS02006252WS02006251 (61)
  Link YS02163601YS02164001 (55)
  Link YS02001619YS02001622 (54)
  Link YS02001629YS02163301 (51)
  Link YS02163301YS02001633 (51)
  
  
  *************************
  Routing Time Step Summary
  *************************
  Minimum Time Step           :     0.50 sec
  Average Time Step           :     2.18 sec
  Maximum Time Step           :     5.00 sec
  Percent in Steady State     :    -0.00
  Average Iterations per Step :     5.23
  Percent Not Converging      :    32.11
  
  
  ***************************
  Subcatchment Runoff Summary
  ***************************
  
  ------------------------------------------------------------------------------------------------------------------------------
                            Total      Total      Total      Total     Imperv       Perv      Total       Total     Peak  Runoff
                           Precip      Runon       Evap      Infil     Runoff     Runoff     Runoff      Runoff   Runoff   Coeff
  Subcatchment                 mm         mm         mm         mm         mm         mm         mm    10^6 ltr      LPS
  ------------------------------------------------------------------------------------------------------------------------------
  sub0                      14.94       0.00       0.00       0.67      13.85       0.38      14.23        0.01     2.95   0.952
  sub1                      14.94       0.00       0.00       1.13      13.21       0.51      13.72        0.09    20.77   0.918
  sub2                      14.94       0.00       0.00       4.59       9.33       0.94      10.27        0.10    20.13   0.687
  sub3                      14.94       0.00       0.00       4.76       9.30       0.77      10.07        0.23    45.01   0.674
  sub4                      14.94       0.00       0.00       1.24      13.06       0.41      13.46        0.28    53.61   0.901
  sub5                      14.94       0.00       0.00       0.70      13.80       0.35      14.15        0.16    36.52   0.947
  sub7                      14.94       0.00       0.00       0.89      13.54       0.46      14.00        0.05    11.42   0.937
  sub8                      14.94       0.00       0.00       0.90      13.53       0.45      13.98        0.09    21.17   0.935
  sub9                      14.94       0.00       0.00       0.90      13.53       0.45      13.97        0.07    15.85   0.935
  sub10                     14.94       0.00       0.00       0.80      13.66       0.40      14.06        0.16    35.75   0.941
  sub11                     14.94       0.00       0.00       0.79      13.68       0.41      14.09        0.16    39.05   0.943
  sub12                     14.94       0.00       0.00       1.28      12.95       0.66      13.61        0.12    29.95   0.911
  sub14                     14.94       0.00       0.00       0.90      13.52       0.45      13.97        0.13    31.23   0.935
  sub15                     14.94       0.00       0.00       3.42      10.40       1.06      11.46        0.20    44.55   0.767
  sub16                     14.94       0.00       0.00       3.60       9.97       1.33      11.31        0.12    28.40   0.757
  sub17                     14.94       0.00       0.00       3.50      10.12       1.28      11.40        0.10    23.29   0.763
  sub22                     14.94       0.00       0.00       5.08       8.48       1.34       9.82        0.62   139.97   0.657
  sub23                     14.94       0.00       0.00       4.23       9.37       1.30      10.67        0.51   117.35   0.714
  sub60                     14.94       0.00       0.00       1.62      11.28       0.17      11.45        3.47   388.02   0.766
  sub61                     14.94       0.00       0.00       2.30      11.28       0.24      11.52        3.55   453.50   0.771
  sub62                     14.94       0.00       0.00       1.01      12.32       0.18      12.50        3.84   470.76   0.836
  sub63                     14.94       0.00       0.00       4.06       9.82       0.27      10.09        3.06   411.73   0.675
  sub64                     14.94       0.00       0.00       2.07      10.84       0.17      11.01        3.35   371.05   0.737
  sub65                     14.94       0.00       0.00       1.78      11.03       0.16      11.20        3.44   378.16   0.749
  sub66                     14.94       0.00       0.00       4.15       9.25       0.18       9.43        2.89   333.79   0.631
  sub67                     14.94       0.00       0.00       0.97      12.84       0.22      13.06        4.03   561.93   0.874
  sub68                     14.94       0.00       0.00       1.84      11.82       0.25      12.07        3.71   490.90   0.808
  sub69                     14.94       0.00       0.00       1.91      12.12       0.34      12.45        2.91   446.51   0.833
  sub70                     14.94      12.71       0.00       7.96      16.76       1.44      18.19        4.16   492.54   0.658
  sub71                     14.94       0.00       0.00       1.03      12.07       0.17      12.23        2.89   337.39   0.819
  sub72                     14.94       0.00       0.00       0.95      10.05       0.09      10.14        2.07   188.28   0.679
  1                         14.94      17.71       0.00       1.40      19.41       5.94      25.35        5.96   536.12   0.776
  2                         14.94       0.00       0.00       3.09       3.60       2.57       6.17        2.47   275.68   0.413
  
  
  ****************************
  Subcatchment Washoff Summary
  ****************************
  
  ------------------------------------------------------------------------------------------
                                 COD            SS            TN            TP         NH4-N
  Subcatchment                    kg            kg            kg            kg            kg
  ------------------------------------------------------------------------------------------
  sub0                         3.040         5.916         0.053         0.004         0.026
  sub1                        13.146        26.365         0.247         0.017         0.119
  sub2                         8.395        16.447         0.176         0.012         0.081
  sub3                        20.646        40.146         0.424         0.029         0.196
  sub4                        30.501        61.984         0.602         0.037         0.289
  sub5                        30.052        59.367         0.540         0.041         0.262
  sub7                         6.636        13.478         0.126         0.008         0.061
  sub8                         9.925        20.639         0.198         0.012         0.095
  sub9                         8.521        17.469         0.165         0.011         0.079
  sub10                       24.673        49.373         0.455         0.033         0.220
  sub11                       23.887        48.310         0.449         0.031         0.217
  sub12                       20.389        40.430         0.372         0.028         0.180
  sub14                       18.254        37.070         0.347         0.023         0.167
  sub15                       24.292        47.502         0.467         0.034         0.220
  sub16                       15.652        30.524         0.298         0.022         0.140
  sub17                       14.380        27.794         0.267         0.021         0.126
  sub22                       76.738       147.365         1.455         0.110         0.682
  sub23                       44.233        87.867         0.933         0.062         0.430
  sub60                      294.453       558.636         5.833         0.362         2.799
  sub61                      365.115       689.683         6.795         0.469         3.275
  sub62                      376.512       722.944         7.328         0.469         3.523
  sub63                      270.931       504.389         5.392         0.382         2.510
  sub64                      372.397       681.763         6.849         0.502         3.276
  sub65                      380.813       699.947         7.047         0.507         3.376
  sub66                      214.094       395.345         4.358         0.287         2.041
  sub67                      558.701      1062.068        10.059         0.745         4.869
  sub68                      399.700       762.247         7.630         0.520         3.652
  sub69                      358.315       690.112         6.718         0.476         3.219
  sub70                      621.492      1200.679        12.412         0.871         5.841
  sub71                      248.166       480.867         5.069         0.297         2.428
  sub72                      203.274       366.415         3.790         0.261         1.825
  1                          459.591       892.781         9.329         0.655         4.348
  2                           53.287        95.129         1.490         0.090         0.637
  ------------------------------------------------------------------------------------------
  System                    5570.200     10581.052       107.667         7.427        51.210
  
  
  ******************
  Node Depth Summary
  ******************
  
  ---------------------------------------------------------------------------------
                                 Average  Maximum  Maximum  Time of Max    Reported
                                   Depth    Depth      HGL   Occurrence   Max Depth
  Node                 Type       Meters   Meters   Meters  days hr:min      Meters
  ---------------------------------------------------------------------------------
  WS02001211           JUNCTION     0.24     0.32     5.16     0  02:21        0.32
  WS02001212           JUNCTION     0.04     0.15     5.21     0  02:20        0.15
  WS02001213           JUNCTION     0.34     0.50     5.26     0  02:20        0.50
  WS02003069           JUNCTION     0.20     0.37     4.95     0  02:20        0.37
  WS02003072           JUNCTION     0.25     0.44     4.81     0  02:21        0.44
  WS02003073           JUNCTION     0.14     0.26     4.32     0  02:21        0.26
  WS02003060           JUNCTION     0.18     0.33     5.26     0  02:19        0.33
  WS02003066           JUNCTION     0.15     0.28     5.83     0  02:18        0.28
  WS02003059           JUNCTION     0.42     0.58     5.26     0  02:19        0.58
  WS02003067           JUNCTION     0.41     0.67     5.99     0  02:18        0.67
  WS02004401           JUNCTION     0.48     0.81     6.81     0  02:14        0.81
  WS02004402           JUNCTION     0.52     0.84     6.80     0  02:15        0.84
  WS02004403           JUNCTION     0.54     0.86     6.79     0  02:14        0.86
  WS02004404           JUNCTION     0.62     0.95     6.80     0  02:15        0.95
  WS02004406           JUNCTION     0.63     0.92     6.75     0  02:14        0.92
  WS02004409           JUNCTION     0.29     0.62     6.39     0  02:17        0.62
  WS02004410           JUNCTION     0.32     0.63     6.35     0  02:17        0.63
  WS02004411           JUNCTION     0.34     0.64     6.32     0  02:17        0.64
  WS02004412           JUNCTION     0.36     0.66     6.30     0  02:18        0.66
  WS02004413           JUNCTION     0.51     0.82     6.29     0  02:18        0.82
  WS02004405           JUNCTION     0.61     0.92     6.77     0  02:15        0.92
  WS02006109           JUNCTION     0.54     0.87     7.49     0  02:11        0.87
  WS02006110           JUNCTION     0.55     0.85     7.44     0  02:11        0.85
  WS02006111           JUNCTION     0.14     0.26     6.97     0  02:12        0.26
  WS02006112           JUNCTION     0.63     0.99     6.88     0  02:14        0.99
  WS02006113           JUNCTION     0.20     0.41     7.30     0  02:11        0.41
  WS02006115           JUNCTION     0.37     0.71     6.85     0  02:14        0.71
  WS02006116           JUNCTION     0.45     0.79     6.83     0  02:14        0.79
  WS02006230           JUNCTION     0.43     0.82     7.56     0  02:11        0.82
  WS02006231           JUNCTION     0.20     0.42     7.54     0  02:11        0.42
  WS02006232           JUNCTION     0.29     0.50     7.54     0  02:11        0.50
  WS02006234           JUNCTION     0.17     0.35     7.50     0  02:12        0.35
  WS02006235           JUNCTION     0.18     0.29     7.45     0  02:12        0.29
  WS02006238           JUNCTION     0.22     0.32     7.46     0  02:12        0.32
  WS02006240           JUNCTION     0.19     0.25     7.55     0  02:14        0.25
  WS02006242           JUNCTION     0.26     0.33     7.60     0  02:13        0.33
  WS02006243           JUNCTION     0.16     0.22     7.64     0  02:13        0.22
  WS02006245           JUNCTION     0.19     0.24     7.73     0  02:12        0.24
  WS02006247           JUNCTION     0.22     0.27     7.77     0  02:11        0.27
  WS02006248           JUNCTION     0.17     0.22     7.81     0  02:10        0.22
  WS02006249           JUNCTION     0.22     0.27     7.87     0  02:09        0.27
  WS02006239           JUNCTION     0.20     0.28     7.49     0  02:13        0.28
  WS02006251           JUNCTION     0.20     0.25     7.92     0  02:09        0.25
  WS02006252           JUNCTION     0.51     0.59     8.84     0  03:45        0.59
  WS02006253           JUNCTION     0.24     0.34     7.99     0  02:08        0.34
  WS02006256           JUNCTION     1.78     2.35     9.28     0  00:00        2.35
  WS02004138           JUNCTION     0.14     0.14     7.39     0  00:00        0.14
  WS02004139           JUNCTION     0.16     0.18     5.09     0  02:22        0.18
  WS02004407           JUNCTION     0.13     0.28     6.59     0  02:15        0.28
  WS02006228           JUNCTION     0.52     0.89     7.54     0  02:11        0.89
  WS02006229           JUNCTION     0.48     0.87     7.57     0  02:11        0.87
  WS02006280           JUNCTION     0.09     0.24     8.51     0  02:10        0.24
  WS02006284           JUNCTION     0.39     0.61     9.01     0  02:10        0.61
  WS02006287           JUNCTION     0.13     0.35     9.31     0  02:10        0.35
  WSF200               JUNCTION     0.12     0.27     5.50     0  02:18        0.27
  HS02004901           JUNCTION     0.15     0.34    10.16     0  02:08        0.34
  HS02004881           JUNCTION     0.01     0.05     9.08     0  02:09        0.05
  HS02004876           JUNCTION     0.06     0.15     9.18     0  02:09        0.15
  HS02004870           JUNCTION     0.02     0.08     9.37     0  02:09        0.08
  HS02004862           JUNCTION     0.03     0.10     9.48     0  02:10        0.10
  HS02004856           JUNCTION     0.08     0.14     9.57     0  02:10        0.14
  HS02004852           JUNCTION     0.02     0.06     9.58     0  02:10        0.06
  HS02004848           JUNCTION     0.02     0.06     9.66     0  02:10        0.06
  HS02004842           JUNCTION     0.34     0.39     9.66     0  02:10        0.39
  HS02004837           JUNCTION     0.04     0.08     9.66     0  02:10        0.08
  HS02004830           JUNCTION     0.05     0.10     9.56     0  02:10        0.10
  HS02004824           JUNCTION     0.03     0.10     9.50     0  02:10        0.10
  HS02004817           JUNCTION     0.46     0.66     9.51     0  02:10        0.66
  HS02004807           JUNCTION     0.15     0.33     9.50     0  02:10        0.33
  HS02004802           JUNCTION     0.18     0.36     9.49     0  02:11        0.36
  HS02004799           JUNCTION     0.16     0.42     9.63     0  02:09        0.42
  HS02004792           JUNCTION     0.05     0.19     9.71     0  02:08        0.19
  HS02004788           JUNCTION     0.04     0.14    10.04     0  02:09        0.14
  HS02004785           JUNCTION     0.07     0.22    10.12     0  02:09        0.22
  HS02004777           JUNCTION     0.17     0.36    10.15     0  02:08        0.36
  HS02004770           JUNCTION     0.14     0.33    10.16     0  02:08        0.33
  HS02004480           JUNCTION     0.11     0.34     9.58     0  02:09        0.34
  HS02004479           JUNCTION     0.15     0.38     9.58     0  02:09        0.38
  HS02004478           JUNCTION     0.08     0.24     9.47     0  02:10        0.24
  YS02001745           JUNCTION     0.66     0.92     8.43     0  02:58        0.91
  YS02001748           JUNCTION     1.03     1.36     8.43     0  02:58        1.35
  YS02001751           JUNCTION     1.20     1.55     8.43     0  02:58        1.54
  YS02001754           JUNCTION     1.44     1.82     8.43     0  02:51        1.81
  YS02001762           JUNCTION     1.64     2.05     8.45     0  02:26        2.02
  YS02001765           JUNCTION     1.59     1.99     8.44     0  02:26        1.96
  YS02001767           JUNCTION     1.56     1.94     8.43     0  02:26        1.92
  YS02001770           JUNCTION     1.56     1.92     8.41     0  02:26        1.91
  YS02001774           JUNCTION     1.62     1.98     8.40     0  02:56        1.97
  YS02001779           JUNCTION     1.37     1.68     8.37     0  02:09        1.68
  YS02001882           JUNCTION     0.67     1.63     8.35     0  02:11        1.62
  YS02001884           JUNCTION     0.76     1.73     8.35     0  02:33        1.72
  YS02001759           JUNCTION     1.67     2.09     8.45     0  02:26        2.06
  YS02001887           JUNCTION     0.84     1.81     8.35     0  02:11        1.80
  YS02001890           JUNCTION     0.87     1.81     8.32     0  02:11        1.81
  YS02001898           JUNCTION     0.64     1.57     8.30     0  02:11        1.56
  YS02001901           JUNCTION     0.75     1.68     8.29     0  02:11        1.67
  YS02001904           JUNCTION     0.73     1.64     8.27     0  02:55        1.63
  YS02001907           JUNCTION     1.05     1.96     8.25     0  02:11        1.96
  YS02001910           JUNCTION     0.84     1.79     8.29     0  02:12        1.77
  YS02001915           JUNCTION     0.65     1.60     8.32     0  02:12        1.59
  YS02001918           JUNCTION     0.40     1.29     8.35     0  02:12        1.26
  YS02001619           JUNCTION     1.18     1.48     8.41     0  02:54        1.48
  YS02001629           JUNCTION     1.51     1.85     8.40     0  02:09        1.84
  YS02001641           JUNCTION     1.61     1.94     8.37     0  02:08        1.93
  YS02001644           JUNCTION     1.61     1.92     8.35     0  02:05        1.92
  YS02001652           JUNCTION     1.46     1.99     8.58     0  02:23        1.94
  YS02001655           JUNCTION     1.23     1.84     8.69     0  02:23        1.79
  YS02001920           JUNCTION     0.49     1.37     8.37     0  02:12        1.34
  YS02001923           JUNCTION     0.32     1.13     8.39     0  02:12        1.10
  YS02001926           JUNCTION     0.35     0.96     8.40     0  02:12        0.92
  YS02001929           JUNCTION     0.21     0.70     8.40     0  02:12        0.70
  YS02001658           JUNCTION     0.98     1.65     8.79     0  02:28        1.60
  YS02001661           JUNCTION     0.76     1.67     9.07     0  02:23        1.38
  YS02001664           JUNCTION     0.32     0.56     8.49     0  02:17        0.55
  YS02001622           JUNCTION     1.19     1.50     8.41     0  02:42        1.50
  YS02001633           JUNCTION     1.60     1.96     8.42     0  02:08        1.94
  YS02001649           JUNCTION     1.65     2.05     8.44     0  02:19        2.05
  YS02001757           JUNCTION     1.77     2.17     8.43     0  02:49        2.15
  YS02001895           JUNCTION     0.63     1.57     8.31     0  02:41        1.56
  YS02001625           JUNCTION     1.47     1.78     8.38     0  02:04        1.78
  YS02163301           JUNCTION     1.54     1.89     8.41     0  02:08        1.88
  YS02163601           JUNCTION     1.65     2.01     8.40     0  02:08        1.98
  YS02164001           JUNCTION     1.59     1.93     8.39     0  02:08        1.91
  YS02001647           JUNCTION     1.44     1.82     8.43     0  02:26        1.78
  YSB1154              JUNCTION     0.29     0.53     9.58     0  02:09        0.53
  YSB6556              JUNCTION     0.18     0.41     9.58     0  02:09        0.41
  YSB1174              JUNCTION     0.24     0.47     9.58     0  02:09        0.47
  YSB1171              JUNCTION     0.44     0.68     9.58     0  02:09        0.68
  YS02006553           JUNCTION     1.05     2.02     8.31     0  02:18        1.96
  YS02006561           JUNCTION     0.40     1.23     7.89     0  02:18        1.08
  YS02006556           JUNCTION     1.02     2.07     8.38     0  02:18        1.93
  YS02006558           JUNCTION     1.06     2.13     8.40     0  02:18        1.96
  YS02001783           JUNCTION     0.62     1.66     7.80     0  02:18        1.47
  YS02001784           JUNCTION     0.62     1.63     7.70     0  02:18        1.41
  YS02001786           JUNCTION     0.54     1.50     7.53     0  02:18        1.26
  YS02001788           JUNCTION     0.45     1.38     7.36     0  02:18        1.13
  YS02001790           JUNCTION     0.54     1.48     7.13     0  02:18        1.29
  YS02001791           JUNCTION     0.47     1.28     6.75     0  02:47        1.27
  YS02001793           JUNCTION     0.59     1.80     6.64     0  03:18        1.80
  WSC                  OUTFALL      0.14     0.26     0.93     0  02:22        0.26
  3                    OUTFALL      0.00     0.00     7.16     0  00:00        0.00
  4                    OUTFALL      0.00     0.00     7.67     0  00:00        0.00
  5                    OUTFALL      0.00     0.00     4.91     0  00:00        0.00
  JK-storage           STORAGE      1.90     5.80     6.60     0  02:18        5.80
  CC-storage           STORAGE      0.98     1.37     8.37     0  03:05        1.37
  XR-storage           STORAGE      7.41     7.72     5.72     0  01:53        7.72
  
  
  *******************
  Node Inflow Summary
  *******************
  
  -------------------------------------------------------------------------------------------------
                                  Maximum  Maximum                  Lateral       Total        Flow
                                  Lateral    Total  Time of Max      Inflow      Inflow     Balance
                                   Inflow   Inflow   Occurrence      Volume      Volume       Error
  Node                 Type           LPS      LPS  days hr:min    10^6 ltr    10^6 ltr     Percent
  -------------------------------------------------------------------------------------------------
  WS02001211           JUNCTION      7.35    67.89     0  02:20       0.212       0.441       1.374
  WS02001212           JUNCTION      0.00    60.58     0  02:19           0       0.226       0.022
  WS02001213           JUNCTION      0.00    60.82     0  02:18           0       0.236       3.764
  WS02003069           JUNCTION      0.32   422.18     0  02:19     0.00922        3.47       0.154
  WS02003072           JUNCTION      0.00   422.16     0  02:20           0        3.46       0.252
  WS02003073           JUNCTION      1.82   423.95     0  02:21      0.0524        3.51       0.215
  WS02003060           JUNCTION     16.53   482.90     0  02:18       0.476        3.72       0.136
  WS02003066           JUNCTION      0.00   466.36     0  02:18           0        3.24       0.052
  WS02003059           JUNCTION      0.00    85.77     0  01:48           0        0.26       7.034
  WS02003067           JUNCTION      0.00   466.34     0  02:18           0        3.24       0.143
  WS02004401           JUNCTION      0.00   468.64     0  02:13           0        3.36       0.340
  WS02004402           JUNCTION      0.00   468.97     0  02:13           0        3.35       0.342
  WS02004403           JUNCTION      0.00   469.68     0  02:13           0        3.34       0.329
  WS02004404           JUNCTION      0.16   481.69     0  02:14     0.00467        3.33       0.250
  WS02004406           JUNCTION      0.00   471.51     0  02:14           0        3.31       0.663
  WS02004409           JUNCTION      0.00   468.29     0  02:15           0        3.29       0.118
  WS02004410           JUNCTION      0.00   467.57     0  02:16           0        3.28       0.175
  WS02004411           JUNCTION      0.00   466.99     0  02:16           0        3.28       0.209
  WS02004412           JUNCTION      0.00   466.64     0  02:17           0        3.27       0.269
  WS02004413           JUNCTION      0.00   466.42     0  02:17           0        3.26       0.469
  WS02004405           JUNCTION      0.04   522.96     0  02:14      0.0011        3.32       0.398
  WS02006109           JUNCTION      1.23   448.88     0  02:11      0.0354        3.32       0.348
  WS02006110           JUNCTION      0.00   448.88     0  02:11           0        3.31       0.309
  WS02006111           JUNCTION      0.00   460.84     0  02:11           0        3.29       0.033
  WS02006112           JUNCTION     23.29   472.07     0  02:11      0.0978        3.39       0.464
  WS02006113           JUNCTION      0.00   448.97     0  02:11           0         3.3       0.072
  WS02006115           JUNCTION      0.00   470.37     0  02:11           0        3.37       0.285
  WS02006116           JUNCTION      0.00   469.25     0  02:12           0        3.37       0.206
  WS02006230           JUNCTION     10.28   134.54     0  02:10       0.296        1.06       0.479
  WS02006231           JUNCTION      0.00   134.27     0  02:10           0        0.81       0.088
  WS02006232           JUNCTION      0.00   134.01     0  02:11           0       0.811       0.585
  WS02006234           JUNCTION      0.00   133.95     0  02:11           0        0.81       0.046
  WS02006235           JUNCTION      0.00   510.75     0  02:12           0         7.4       0.033
  WS02006238           JUNCTION      0.00    94.19     0  02:15           0        1.66       0.144
  WS02006240           JUNCTION      0.00    94.10     0  02:13           0        1.66       0.208
  WS02006242           JUNCTION      0.00    94.15     0  02:12           0        1.66       0.360
  WS02006243           JUNCTION      0.00    94.20     0  02:11           0        1.67       0.185
  WS02006245           JUNCTION      0.00    94.21     0  02:10           0        1.67       0.254
  WS02006247           JUNCTION      0.00    94.24     0  02:10           0        1.67       0.210
  WS02006248           JUNCTION      0.00    94.26     0  02:10           0        1.67       0.085
  WS02006249           JUNCTION      0.00    94.33     0  02:09           0        1.68       0.319
  WS02006239           JUNCTION      0.00    94.11     0  02:14           0        1.66       0.193
  WS02006251           JUNCTION      0.08   522.08     0  02:09     0.00222         9.7       0.033
  WS02006252           JUNCTION      0.00   400.00     0  01:40           0        9.16       0.006
  WS02006253           JUNCTION      2.95   121.37     0  02:09      0.0115       0.538       0.522
  WS02006256           JUNCTION      0.00   683.00     0  00:00           0        9.68      -0.018
  WS02004138           JUNCTION      0.00   190.00     0  00:00           0        5.47       0.071
  WS02004139           JUNCTION      0.32   258.05     0  02:22     0.00924        5.91       0.076
  WS02004407           JUNCTION      0.00   468.39     0  02:15           0        3.29       0.056
  WS02006228           JUNCTION      0.00   447.65     0  02:11           0        3.29       0.221
  WS02006229           JUNCTION      0.00   571.85     0  02:10           0        3.53       0.227
  WS02006280           JUNCTION      0.00   571.84     0  02:10           0        2.75       0.002
  WS02006284           JUNCTION      0.10   571.77     0  02:10     0.00275        2.75       0.024
  WS02006287           JUNCTION      0.00   571.59     0  02:10           0        2.75       0.026
  WSF200               JUNCTION      0.00   466.35     0  02:18           0        3.24       0.027
  HS02004901           JUNCTION     28.40    28.40     0  02:06       0.118       0.119       1.504
  HS02004881           JUNCTION     11.42   118.67     0  02:09      0.0472       0.527       0.012
  HS02004876           JUNCTION     20.77   107.66     0  02:09      0.0912        0.48       0.112
  HS02004870           JUNCTION     21.17    87.10     0  02:09      0.0893       0.389       0.027
  HS02004862           JUNCTION     20.33    66.55     0  02:10       0.101         0.3       0.057
  HS02004856           JUNCTION     15.85    46.26     0  02:09      0.0672         0.2       0.725
  HS02004852           JUNCTION      0.00    30.83     0  02:10           0       0.133       0.041
  HS02004848           JUNCTION     45.01    45.01     0  02:12       0.227       0.227       0.020
  HS02004842           JUNCTION      0.00    15.12     0  02:21           0       0.107      13.855
  HS02004837           JUNCTION     42.10    55.57     0  02:09       0.338       0.432       0.188
  HS02004830           JUNCTION      0.15    55.70     0  02:10     0.00432       0.422       0.293
  HS02004824           JUNCTION     53.66   109.16     0  02:11       0.282       0.703       0.076
  HS02004817           JUNCTION      0.60   110.33     0  02:13      0.0173        0.72       2.370
  HS02004807           JUNCTION     39.05   147.20     0  02:12       0.164       0.868       0.504
  HS02004802           JUNCTION      0.00   147.68     0  02:12           0       0.866       0.458
  HS02004799           JUNCTION     31.23   361.12     0  02:08       0.133        1.63       0.172
  HS02004792           JUNCTION    140.25   330.29     0  02:08       0.628         1.5       0.027
  HS02004788           JUNCTION     46.22   190.88     0  02:08       0.245       0.868       0.045
  HS02004785           JUNCTION      0.15   144.86     0  02:08     0.00432       0.624       0.078
  HS02004777           JUNCTION      0.03   144.89     0  02:07    0.000864       0.624       0.838
  HS02004770           JUNCTION    117.35   145.35     0  02:07       0.509       0.626       0.495
  HS02004480           JUNCTION      0.00   425.80     0  02:09           0         1.9       0.056
  HS02004479           JUNCTION      0.00    64.80     0  02:08           0       0.288       0.254
  HS02004478           JUNCTION      0.00   571.55     0  02:10           0        2.75       0.011
  YS02001745           JUNCTION    388.02   388.02     0  02:47        3.47        3.47       0.178
  YS02001748           JUNCTION      0.04   396.71     0  02:42      0.0013        3.46       0.556
  YS02001751           JUNCTION      0.01   397.04     0  02:42    0.000317        3.45       0.670
  YS02001754           JUNCTION      0.26   396.45     0  02:48     0.00749        3.43       0.711
  YS02001762           JUNCTION      0.00   425.30     0  02:16           0        2.18       0.967
  YS02001765           JUNCTION      0.00   425.40     0  02:16           0        2.18       1.118
  YS02001767           JUNCTION      0.54   425.24     0  02:16      0.0154         2.2       1.623
  YS02001770           JUNCTION    470.91   551.53     0  03:01        3.85        4.03       0.761
  YS02001774           JUNCTION      0.00   552.39     0  03:01           0        1.99       1.249
  YS02001779           JUNCTION      0.01   551.92     0  03:01    0.000144        1.96       0.760
  YS02001882           JUNCTION      0.00    27.08     0  02:05           0       0.014      17.789
  YS02001884           JUNCTION      0.00    39.56     0  02:04           0      0.0493      14.216
  YS02001759           JUNCTION    453.54   841.18     0  02:16        3.55        5.52       0.404
  YS02001887           JUNCTION    562.38   563.12     0  02:28        4.04        4.07       0.203
  YS02001890           JUNCTION      0.00   563.23     0  02:29           0        4.03       0.226
  YS02001898           JUNCTION      0.00   518.38     0  02:43           0        3.94       0.070
  YS02001901           JUNCTION      0.00   518.26     0  02:48           0        3.94       0.178
  YS02001904           JUNCTION      0.00   518.63     0  02:44           0        3.94       0.151
  YS02001907           JUNCTION      0.00  1047.60     0  02:13           0        8.95       0.266
  YS02001910           JUNCTION      0.00   534.55     0  02:13           0        5.02       0.233
  YS02001915           JUNCTION    337.41   534.72     0  02:13        2.89        5.05       0.119
  YS02001918           JUNCTION      0.00   253.93     0  02:13           0        2.18       0.092
  YS02001619           JUNCTION    333.79   333.79     0  02:45        2.89        2.89       0.402
  YS02001629           JUNCTION      0.00   218.53     0  02:04           0        1.49       1.878
  YS02001641           JUNCTION      0.00   455.76     0  02:04           0        4.84       0.428
  YS02001644           JUNCTION    371.09  1343.85     0  02:59        3.35        10.5       0.238
  YS02001652           JUNCTION      0.00   456.12     0  02:24           0        3.04       0.743
  YS02001655           JUNCTION      0.15   455.29     0  02:24     0.00443        3.06       0.810
  YS02001920           JUNCTION      2.87   253.43     0  02:13      0.0827        2.16       0.144
  YS02001923           JUNCTION      0.04   252.01     0  02:12     0.00109        2.07       0.045
  YS02001926           JUNCTION      0.05   189.48     0  03:00      0.0015        2.07       0.157
  YS02001929           JUNCTION    188.28   188.28     0  03:01        2.07        2.07       0.029
  YS02001658           JUNCTION      0.00   491.27     0  02:23           0        3.08       0.702
  YS02001661           JUNCTION      0.00   756.11     0  02:17           0        3.24      -0.819
  YS02001664           JUNCTION    411.73   411.73     0  02:32        3.06        3.24       0.072
  YS02001622           JUNCTION      0.00   334.50     0  02:44           0        2.88       1.096
  YS02001633           JUNCTION    378.36   455.42     0  02:04        3.45         4.9       0.649
  YS02001649           JUNCTION      0.00  1026.86     0  02:10           0        6.35       0.577
  YS02001757           JUNCTION      0.00  2118.81     0  02:15           0        12.7       0.728
  YS02001895           JUNCTION      0.00   518.44     0  02:43           0        3.95       0.131
  YS02001625           JUNCTION      0.00   334.53     0  02:48           0        2.85       1.367
  YS02163301           JUNCTION      0.00   219.51     0  02:04           0        1.48       1.615
  YS02163601           JUNCTION      0.11   455.53     0  02:04     0.00317        4.85       0.613
  YS02164001           JUNCTION      0.00   455.80     0  02:04           0        4.83       0.389
  YS02001647           JUNCTION      0.00   688.78     0  02:04           0        4.93       0.564
  YSB1154              JUNCTION     36.52    36.52     0  02:07        0.16       0.161       0.904
  YSB6556              JUNCTION      0.00    36.33     0  02:08           0       0.162       0.779
  YSB1174              JUNCTION     29.95    29.95     0  02:05       0.119       0.119       1.086
  YSB1171              JUNCTION      0.00    64.98     0  02:08           0       0.287       2.259
  YS02006553           JUNCTION      0.00   711.25     0  02:11           0        7.19       0.213
  YS02006561           JUNCTION      0.00  1144.47     0  02:17           0        10.9       0.005
  YS02006556           JUNCTION      0.00   710.79     0  02:11           0        7.19       0.144
  YS02006558           JUNCTION    491.78  1145.23     0  02:17        3.74        10.9       0.052
  YS02001783           JUNCTION      0.00  1144.46     0  02:17           0        10.9       0.020
  YS02001784           JUNCTION      1.06  1145.63     0  02:17      0.0305        10.9       0.035
  YS02001786           JUNCTION      0.06  1145.69     0  02:17     0.00162        10.9       0.034
  YS02001788           JUNCTION      0.07  1145.42     0  02:17     0.00204        10.9       0.017
  YS02001790           JUNCTION      0.15  1157.02     0  02:14     0.00446        10.9       0.025
  YS02001791           JUNCTION      0.00  1274.60     0  02:14           0        10.9       0.009
  YS02001793           JUNCTION      0.00  1228.93     0  02:15           0        10.9      -0.001
  WSC                  OUTFALL       0.00   423.85     0  02:22           0         3.5       0.000
  3                    OUTFALL       0.00   510.75     0  02:12           0        6.85       0.000
  4                    OUTFALL       0.00   427.26     0  02:09           0        8.02       0.000
  5                    OUTFALL       0.00   258.04     0  02:22           0         5.9       0.000
  JK-storage           STORAGE       0.00  1243.05     0  02:12           0          11      -0.259
  CC-storage           STORAGE       0.00  2118.70     0  02:15           0        11.8      -0.042
  XR-storage           STORAGE     976.60   976.60     0  03:01        14.2        14.8      -0.002
  
  
  **********************
  Node Surcharge Summary
  **********************
  
  Surcharging occurs when water rises above the top of the highest conduit.
  ---------------------------------------------------------------------
                                               Max. Height   Min. Depth
                                   Hours       Above Crown    Below Rim
  Node                 Type      Surcharged         Meters       Meters
  ---------------------------------------------------------------------
  WS02006109           JUNCTION        0.42          0.053        1.767
  WS02006252           JUNCTION        6.36          0.193        0.907
  WS02006256           JUNCTION        6.58          2.050        0.000
  WS02006228           JUNCTION        0.40          0.059        2.141
  YS02001748           JUNCTION        5.18          0.277        0.913
  YS02001751           JUNCTION        6.00          0.551        0.649
  YS02001754           JUNCTION        6.07          0.768        0.382
  YS02001762           JUNCTION        6.19          1.046        0.104
  YS02001765           JUNCTION        6.17          0.992        0.108
  YS02001767           JUNCTION        6.16          0.940        0.090
  YS02001770           JUNCTION        6.15          0.887        0.033
  YS02001774           JUNCTION        6.18          0.977        0.073
  YS02001779           JUNCTION        6.06          0.680        0.000
  YS02001882           JUNCTION        1.62          0.632        0.198
  YS02001884           JUNCTION        1.65          0.671        0.199
  YS02001759           JUNCTION        6.21          1.085        0.125
  YS02001887           JUNCTION        1.73          0.758        0.192
  YS02001890           JUNCTION        1.76          0.760        0.000
  YS02001898           JUNCTION        1.58          0.536        0.204
  YS02001901           JUNCTION        1.70          0.679        0.191
  YS02001904           JUNCTION        1.68          0.638        0.212
  YS02001907           JUNCTION        2.19          0.950        0.000
  YS02001910           JUNCTION        1.81          0.786        0.314
  YS02001915           JUNCTION        1.61          0.602        0.398
  YS02001918           JUNCTION        1.36          0.285        0.525
  YS02001619           JUNCTION        6.00          0.479        0.131
  YS02001629           JUNCTION        6.00          0.469        0.001
  YS02001641           JUNCTION        6.18          0.938        0.162
  YS02001644           JUNCTION        6.18          0.920        0.000
  YS02001652           JUNCTION        6.09          0.955        0.175
  YS02001655           JUNCTION        6.01          0.836        0.364
  YS02001920           JUNCTION        1.40          0.366        0.774
  YS02001658           JUNCTION        5.26          0.647        0.653
  YS02001661           JUNCTION        0.13          0.598        0.792
  YS02001622           JUNCTION        6.01          0.502        0.118
  YS02001633           JUNCTION        6.17          0.942        0.118
  YS02001649           JUNCTION        6.19          1.050        0.000
  YS02001757           JUNCTION        6.25          1.166        0.044
  YS02001895           JUNCTION        1.59          0.567        0.183
  YS02001625           JUNCTION        6.13          0.780        0.000
  YS02163301           JUNCTION        6.16          0.892        0.138
  YS02163601           JUNCTION        6.19          1.005        0.075
  YS02164001           JUNCTION        6.18          0.931        0.169
  YS02001647           JUNCTION        6.10          0.818        0.082
  YS02006553           JUNCTION        2.27          1.022        0.168
  YS02006561           JUNCTION        1.45          0.434        0.716
  YS02006556           JUNCTION        1.99          1.026        0.324
  YS02006558           JUNCTION        1.96          1.033        0.367
  YS02001783           JUNCTION        1.97          0.863        0.737
  YS02001784           JUNCTION        1.97          0.834        0.656
  YS02001786           JUNCTION        1.89          0.702        0.728
  YS02001788           JUNCTION        1.74          0.584        0.896
  YS02001790           JUNCTION        1.82          0.680        0.477
  YS02001791           JUNCTION        1.84          0.481        1.439
  YS02001793           JUNCTION        1.93          0.805        1.795
  
  
  *********************
  Node Flooding Summary
  *********************
  
  Flooding refers to all water that overflows a node, whether it ponds or not.
  --------------------------------------------------------------------------
                                                             Total   Maximum
                                 Maximum   Time of Max       Flood    Ponded
                        Hours       Rate    Occurrence      Volume     Depth
  Node                 Flooded       LPS   days hr:min    10^6 ltr    Meters
  --------------------------------------------------------------------------
  WS02006256              3.68    678.53      0  00:00       4.208     0.000
  YS02001779              2.65    551.86      0  03:01       1.941     0.000
  YS02001890              0.70     47.12      0  02:28       0.070     0.000
  YS02001907              1.21    552.95      0  02:38       1.749     0.000
  YS02001644              3.77   1343.07      0  02:59       7.840     0.000
  YS02001649              0.01     15.78      0  02:25       0.000     0.000
  YS02001625              1.83    334.19      0  02:48       1.327     0.000
  JK-storage              1.70    310.20      0  02:18       1.396     0.000
  XR-storage              6.12    786.58      0  03:01       8.384     0.000
  
  
  **********************
  Storage Volume Summary
  **********************
  
  --------------------------------------------------------------------------------------------------
                         Average     Avg  Evap Exfil       Maximum     Max    Time of Max    Maximum
                          Volume    Pcnt  Pcnt  Pcnt        Volume    Pcnt     Occurrence    Outflow
  Storage Unit           1000 m3    Full  Loss  Loss       1000 m3    Full    days hr:min        LPS
  --------------------------------------------------------------------------------------------------
  JK-storage               0.095      33     0     0         0.291     100       0  02:18     683.00
  CC-storage               2.719      17     0     0         3.828      24       0  03:05     400.00
  XR-storage               0.889      96     0     0         0.926     100       0  01:53     190.00
  
  
  ***********************
  Outfall Loading Summary
  ***********************
  
  ---------------------------------------------------------------------------------------------------------------------------------
                         Flow       Avg       Max       Total         Total         Total         Total         Total         Total
                         Freq      Flow      Flow      Volume           COD            SS            TN            TP         NH4-N
  Outfall Node           Pcnt       LPS       LPS    10^6 ltr            kg            kg            kg            kg            kg
  ---------------------------------------------------------------------------------------------------------------------------------
  WSC                   99.98    145.64    423.85       3.498       472.051       862.419        22.369         2.487        13.117
  3                     99.98    275.63    510.75       6.854       480.389       917.092         9.507         0.685         4.645
  4                     99.97    312.11    427.26       8.016       746.705      1406.706        14.652         1.008         7.069
  5                     99.99    207.91    258.04       5.904       842.714      1411.264        66.577         8.102        40.970
  ---------------------------------------------------------------------------------------------------------------------------------
  System                99.98    941.29   1593.95      24.271      2541.859      4597.481       113.106        12.281        65.802
  
  
  ********************
  Link Flow Summary
  ********************
  
  -----------------------------------------------------------------------------
                                 Maximum  Time of Max   Maximum    Max/    Max/
                                  |Flow|   Occurrence   |Veloc|    Full    Full
  Link                 Type          LPS  days hr:min     m/sec    Flow   Depth
  -----------------------------------------------------------------------------
  WS02003066WSF200     CONDUIT    466.35     0  02:18      2.78    0.08    0.21
  WS02006287WS02006284 CONDUIT    571.67     0  02:10      2.26    0.26    0.36
  WS02006284WS02006280 CONDUIT    571.84     0  02:10      2.50    0.24    0.33
  WS02006280WS02006229 CONDUIT    571.85     0  02:10      4.04    0.12    0.24
  WS02006229WS02006228 CONDUIT    447.65     0  02:11      0.89    1.48    1.00
  WS02006256WS02006235 CONDUIT    289.81     0  02:41      4.46    3.07    0.98
  WS02006253WS02006251 CONDUIT    121.41     0  02:09      0.79    0.36    0.42
  WS02006252WS02006251 CONDUIT    401.13     0  03:40      3.19    1.47    1.00
  WS02006251WS02006249 CONDUIT     94.33     0  02:09      0.73    0.27    0.38
  WS02006249WS02006248 CONDUIT     94.26     0  02:10      0.82    0.52    0.34
  WS02006248WS02006247 CONDUIT     94.24     0  02:10      0.82    0.21    0.35
  WS02006247WS02006245 CONDUIT     94.21     0  02:10      0.78    0.75    0.36
  WS02006245WS02006243 CONDUIT     94.20     0  02:11      0.89    0.28    0.32
  WS02006243WS02006242 CONDUIT     94.15     0  02:12      0.84    0.20    0.37
  WS02006242WS02006240 CONDUIT     94.10     0  02:13      0.63    0.37    0.41
  WS02006240WS02006239 CONDUIT     94.11     0  02:14      0.82    0.30    0.35
  WS02006239WS02006238 CONDUIT     94.19     0  02:15      0.82    0.30    0.41
  WS02006238WS02006235 CONDUIT     94.36     0  02:15      1.18    0.21    0.43
  WS02006235WS02006234 CONDUIT    133.94     0  02:12      0.84    1.41    0.43
  WS02006234WS02006232 CONDUIT    133.95     0  02:11      0.82    0.27    0.60
  WS02006232WS02006231 CONDUIT    134.01     0  02:11      0.51    0.28    0.65
  WS02006231WS02006230 CONDUIT    134.27     0  02:10      0.60    2.04    0.61
  WS02006230WS02006229 CONDUIT    124.26     0  02:10      0.44    2.77    1.00
  WS02006228WS02006109 CONDUIT    447.65     0  02:11      0.89    1.96    1.00
  WS02006116WS02004401 CONDUIT    468.64     0  02:13      0.70    0.65    0.80
  WS02006115WS02006116 CONDUIT    469.25     0  02:12      0.91    0.60    0.72
  WS02006113WS02006111 CONDUIT    460.84     0  02:11      2.30    0.55    0.42
  WS02006112WS02006115 CONDUIT    470.37     0  02:11      0.67    0.28    0.85
  WS02006111WS02006112 CONDUIT    449.92     0  02:12      1.29    0.21    0.66
  WS02006110WS02006113 CONDUIT    448.97     0  02:11      1.10    0.41    0.76
  WS02006109WS02006110 CONDUIT    448.88     0  02:11      0.90    0.86    0.96
  WS02004411WS02004412 CONDUIT    466.64     0  02:17      0.93    0.66    0.65
  WS02004401WS02004402 CONDUIT    468.97     0  02:13      0.68    0.56    0.83
  WS02004413WS02003067 CONDUIT    466.34     0  02:18      1.03    0.20    0.56
  WS02004412WS02004413 CONDUIT    466.42     0  02:17      0.89    0.31    0.74
  WS02004410WS02004411 CONDUIT    466.99     0  02:16      0.88    0.64    0.64
  WS02004409WS02004410 CONDUIT    467.57     0  02:16      0.91    0.60    0.62
  WS02004407WS02004409 CONDUIT    468.29     0  02:15      1.39    0.17    0.45
  WS02004406WS02004407 CONDUIT    468.39     0  02:15      0.96    0.21    0.60
  WS02004405WS02004406 CONDUIT    471.51     0  02:14      0.63    0.93    0.92
  WS02004404WS02004405 CONDUIT    522.92     0  02:14      0.69    5.12    0.93
  WS02004403WS02004404 CONDUIT    481.53     0  02:14      0.65    0.35    0.90
  WS02004402WS02004403 CONDUIT    469.68     0  02:13      0.66    0.67    0.85
  WS02004139WS02001211 CONDUIT     67.72     0  02:22      0.55    0.09    0.17
  WS02004138WS02004139 CONDUIT    191.48     0  00:00      2.95    0.04    0.14
  WS02003067WS02003066 CONDUIT    466.36     0  02:18      1.11    0.15    0.40
  WS02001213WS02003059 CONDUIT     60.82     0  02:18      0.20    0.10    0.53
  WS02001212WS02001213 CONDUIT     60.58     0  02:19      0.73    0.09    0.16
  WS02001211WS02001212 CONDUIT     60.54     0  02:20      0.44    0.05    0.23
  WS02003072WS02003073 CONDUIT    422.13     0  02:21      1.31    0.91    0.33
  WS02003069WS02003072 CONDUIT    422.16     0  02:20      1.26    0.20    0.34
  WS02003060WS02003069 CONDUIT    421.86     0  02:19      1.54    0.17    0.29
  WS02003059WS02003060 CONDUIT     85.77     0  01:48      0.56    0.06    0.45
  HS02004901HS02004770 CONDUIT     28.06     0  02:07      0.08    0.11    0.48
  HS02004876HS02004881 CONDUIT    107.66     0  02:09      1.12    1.15    0.14
  HS02004870HS02004876 CONDUIT     87.07     0  02:09      0.76    0.06    0.16
  HS02004842HS02004848 CONDUIT     15.12     0  02:21      0.07    0.01    0.32
  HS02004837HS02004842 CONDUIT     15.46     0  02:22      0.42    0.01    0.34
  HS02004830HS02004837 CONDUIT     55.55     0  02:10      0.63    0.06    0.13
  HS02004824HS02004830 CONDUIT     55.70     0  02:10      0.62    0.07    0.14
  HS02004817HS02004824 CONDUIT    109.73     0  02:13      0.29    0.05    0.54
  HS02004770HS02004777 CONDUIT    144.86     0  02:07      0.42    0.26    0.49
  HS02004799HS02004480 CONDUIT    361.02     0  02:08      0.97    0.46    0.53
  HS02004792HS02004799 CONDUIT    330.24     0  02:08      1.09    0.20    0.43
  HS02004788HS02004792 CONDUIT    190.83     0  02:09      1.18    0.13    0.23
  HS02004785HS02004788 CONDUIT    144.83     0  02:09      0.82    1.09    0.25
  HS02004777HS02004785 CONDUIT    144.71     0  02:08      0.50    0.18    0.41
  HS02004480HS02004478 CONDUIT    425.83     0  02:09      1.44    1.79    0.42
  HS02004479HS02004480 CONDUIT     64.83     0  02:09      0.33    0.06    0.51
  HS02004862HS02004870 CONDUIT     66.53     0  02:10      0.75    0.07    0.13
  HS02004848HS02004852 CONDUIT     30.83     0  02:10      0.50    0.03    0.09
  HS02004856HS02004862 CONDUIT     46.23     0  02:10      0.55    0.05    0.12
  HS02004852HS02004856 CONDUIT     30.87     0  02:11      0.30    0.04    0.15
  HS02004802HS02004478 CONDUIT    148.20     0  02:13      0.49    0.13    0.43
  HS02004478WS02006287 CONDUIT    571.59     0  02:10      1.98    0.16    0.32
  HS02004817HS02004807 CONDUIT    111.13     0  02:14      0.23    0.07    0.71
  HS02004807HS02004802 CONDUIT    147.68     0  02:12      0.43    0.28    0.49
  YS02001759YS02001757 CONDUIT    841.02     0  02:16      1.07    0.60    1.00
  YS02001762YS02001759 CONDUIT    425.63     0  02:16      0.54    0.49    1.00
  YS02001765YS02001762 CONDUIT    425.30     0  02:16      0.54    0.40    1.00
  YS02001770YS02001767 CONDUIT    424.70     0  02:16      0.54    1.68    1.00
  YS02001774YS02001770 CONDUIT    552.39     0  03:01      0.70    0.35    1.00
  YS02001779YS02001774 CONDUIT    551.92     0  03:01      0.70    0.28    1.00
  YS02001649YS02001757 CONDUIT   1028.60     0  02:10      1.31    0.62    1.00
  YS02001767YS02001765 CONDUIT    425.40     0  02:16      0.54    0.54    1.00
  YS02006561YS02001783 CONDUIT   1144.46     0  02:17      2.28    0.59    1.00
  YS02001783YS02001784 CONDUIT   1144.57     0  02:17      2.28    1.58    1.00
  YS02001784YS02001785 CONDUIT   1145.63     0  02:17      2.28    2.67    1.00
  YS02001788YS02001790 CONDUIT   1156.87     0  02:14      2.71    0.85    1.00
  YS02001790YS02001791 CONDUIT   1274.60     0  02:14      3.42    1.39    1.00
  YS02001791YS02001793 CONDUIT   1228.93     0  02:15      6.68    0.53    1.00
  YS02001910YS02001907 CONDUIT    535.09     0  02:13      0.68    0.30    1.00
  YS02001786YS02001788 CONDUIT   1145.35     0  02:17      2.46    2.21    1.00
  YS02001915YS02001910 CONDUIT    534.55     0  02:13      0.68    0.27    1.00
  YS02001918YS02001915 CONDUIT    255.88     0  02:13      0.46    0.14    1.00
  YS02001923YS02001920 CONDUIT    250.56     0  02:13      0.77    0.11    1.00
  YS02001926YS02001923 CONDUIT    251.97     0  02:12      0.86    0.36    0.94
  YS02001929YS02001926 CONDUIT    189.43     0  03:00      0.93    0.09    0.82
  YS02001920YS02001918 CONDUIT    253.93     0  02:13      0.74    0.25    1.00
  YS02001629YS02163301 CONDUIT    219.51     0  02:04      0.28    0.27    1.00
  YS02001619YS02001622 CONDUIT    334.50     0  02:44      0.67    0.49    1.00
  YS02001622YS02001625 CONDUIT    334.06     0  02:45      0.43    0.18    1.00
  YS02001625YS02001629 CONDUIT    218.53     0  02:04      0.28    0.10    1.00
  YS02163301YS02001633 CONDUIT    219.74     0  02:04      0.28    0.21    1.00
  YS02163601YS02164001 CONDUIT    455.80     0  02:04      0.58    0.40    1.00
  YS02164001YS02001641 CONDUIT    455.76     0  02:04      0.58    0.62    1.00
  YS02001641YS02001644 CONDUIT    455.99     0  02:04      0.58    1.47    1.00
  YS02001647YS02001649 CONDUIT    688.13     0  02:08      0.88    0.36    1.00
  YS02006553YS02006556 CONDUIT    710.79     0  02:11      0.90    0.61    1.00
  YS02006556YS02006558 CONDUIT    710.21     0  02:11      0.90    0.56    1.00
  YSB6556YSB1171       CONDUIT     36.30     0  02:09      0.11    0.04    0.78
  YS02001907YS02006553 CONDUIT    711.25     0  02:11      0.79    0.84    1.00
  YS02006558YS02006561 CONDUIT   1144.47     0  02:17      4.05    2.53    1.00
  YS02001633YS02163601 CONDUIT    455.42     0  02:04      0.58    0.48    1.00
  YS02001644YS02001647 CONDUIT    688.78     0  02:04      0.88    0.40    1.00
  YS02001745YS02001748 CONDUIT    396.66     0  02:42      1.56    0.15    0.96
  YS02001748YS02001751 CONDUIT    397.03     0  02:42      1.12    0.20    1.00
  YS02001751YS02001754 CONDUIT    396.19     0  02:48      0.94    0.19    1.00
  YS02001754YS02001757 CONDUIT    396.04     0  02:47      0.50    0.16    1.00
  YS02001882YS02001884 CONDUIT     27.08     0  02:05      0.14    0.03    1.00
  YS02001884YS02001887 CONDUIT     39.56     0  02:04      0.10    0.05    1.00
  YS02001890YS02001895 CONDUIT    518.44     0  02:43      0.66    0.24    1.00
  YS02001895YS02001898 CONDUIT    518.38     0  02:43      0.66    0.90    1.00
  YS02001898YS02001901 CONDUIT    518.26     0  02:48      0.66    0.33    1.00
  YS02001901YS02001904 CONDUIT    518.63     0  02:44      0.66    0.80    1.00
  YS02001904YS02001907 CONDUIT    518.44     0  02:30      0.66    0.18    1.00
  YS02001887YS02001890 CONDUIT    563.23     0  02:29      0.72    0.96    1.00
  YS02001652YS02001649 CONDUIT    457.94     0  02:24      0.64    0.23    1.00
  YS02001655YS02001652 CONDUIT    456.12     0  02:24      1.01    0.22    1.00
  YS02001658YS02001655 CONDUIT    455.14     0  02:24      1.30    0.19    1.00
  YS02001661YS02001658 CONDUIT    491.27     0  02:23      1.65    0.19    1.00
  YS02001664YS02001661 CONDUIT    756.11     0  02:17      1.68    0.24    0.75
  YSB1154YSB6556       CONDUIT     36.33     0  02:08      0.15    0.07    0.67
  YSB1174YSB1171       CONDUIT     29.29     0  02:05      0.09    0.04    0.79
  YSB1171HS02004479    CONDUIT     64.80     0  02:08      0.54    0.04    0.63
  HS02004881HS02006253 CONDUIT    118.67     0  02:09      2.55    0.02    0.07
  YS02001793JiankangQianchi CONDUIT   1243.05     0  02:12     17.37    0.10    1.00
  YS02001757CaochengTiaoxuchi CONDUIT   2118.70     0  02:15      3.57    0.93    1.00
  WSF200WS02003060     CONDUIT    466.37     0  02:18      2.12    0.10    0.25
  1                    CONDUIT    423.85     0  02:22      2.62    0.15    0.26
  CC-Pump-1            PUMP       200.00     0  01:40              1.00
  CC-Pump-2            PUMP       200.00     0  01:40              1.00
  JK-Pump-1            PUMP         0.00     0  00:00              0.00
  JK-Pump-2            PUMP       683.00     0  00:00              1.00
  XR-Pump-1            PUMP         0.00     0  00:00              0.00
  XR-Pump-2            PUMP        95.00     0  00:00              1.00
  XR-Pump-3            PUMP         0.00     0  00:00              0.00
  XR-Pump-4            PUMP        95.00     0  00:00              1.00
  3                    WEIR       427.26     0  02:09                      0.25
  5                    WEIR       510.75     0  02:12                      0.29
  6                    WEIR       258.04     0  02:22                      0.18
  
  
  ***************************
  Flow Classification Summary
  ***************************
  
  -------------------------------------------------------------------------------------
                      Adjusted    ---------- Fraction of Time in Flow Class ---------- 
                       /Actual         Up    Down  Sub   Sup   Up    Down  Norm  Inlet 
  Conduit               Length    Dry  Dry   Dry   Crit  Crit  Crit  Crit  Ltd   Ctrl  
  -------------------------------------------------------------------------------------
  WS02003066WSF200        1.00   0.14  0.00  0.00  0.00  0.86  0.00  0.00  0.78  0.00
  WS02006287WS02006284    1.00   0.05  0.02  0.00  0.51  0.41  0.00  0.00  0.63  0.00
  WS02006284WS02006280    1.00   0.06  0.00  0.00  0.00  0.00  0.00  0.94  0.00  0.00
  WS02006280WS02006229    1.00   0.06  0.00  0.00  0.00  0.00  0.00  0.94  0.00  0.00
  WS02006229WS02006228    1.00   0.00  0.00  0.00  0.99  0.00  0.00  0.01  0.00  0.00
  WS02006256WS02006235    1.00   0.00  0.00  0.00  0.09  0.91  0.00  0.00  0.02  0.00
  WS02006253WS02006251    1.00   0.02  0.03  0.00  0.88  0.00  0.06  0.00  0.00  0.00
  WS02006252WS02006251    1.00   0.11  0.00  0.00  0.00  0.00  0.89  0.00  0.00  0.00
  WS02006251WS02006249    1.00   0.00  0.00  0.00  1.00  0.00  0.00  0.00  0.18  0.00
  WS02006249WS02006248    1.00   0.00  0.07  0.00  0.87  0.00  0.06  0.00  0.00  0.00
  WS02006248WS02006247    1.00   0.07  0.00  0.00  0.91  0.00  0.00  0.02  0.01  0.00
  WS02006247WS02006245    1.00   0.07  0.00  0.00  0.89  0.00  0.00  0.04  0.00  0.00
  WS02006245WS02006243    1.00   0.07  0.00  0.00  0.86  0.00  0.00  0.06  0.00  0.00
  WS02006243WS02006242    1.00   0.02  0.06  0.00  0.89  0.00  0.00  0.03  0.68  0.00
  WS02006242WS02006240    1.00   0.00  0.07  0.00  0.89  0.00  0.03  0.00  0.18  0.00
  WS02006240WS02006239    1.00   0.00  0.00  0.00  0.90  0.00  0.00  0.09  0.01  0.00
  WS02006239WS02006238    1.00   0.00  0.00  0.00  1.00  0.00  0.00  0.00  0.15  0.00
  WS02006238WS02006235    1.00   0.00  0.00  0.00  0.99  0.01  0.00  0.00  0.00  0.00
  WS02006235WS02006234    1.00   0.07  0.00  0.00  0.90  0.00  0.02  0.01  0.00  0.00
  WS02006234WS02006232    1.00   0.00  0.00  0.00  1.00  0.00  0.00  0.00  0.13  0.00
  WS02006232WS02006231    1.00   0.00  0.00  0.00  0.99  0.00  0.00  0.00  0.01  0.00
  WS02006231WS02006230    1.00   0.00  0.00  0.00  0.33  0.00  0.67  0.00  0.00  0.00
  WS02006230WS02006229    1.00   0.00  0.00  0.00  0.98  0.00  0.00  0.02  0.02  0.00
  WS02006228WS02006109    1.00   0.00  0.00  0.00  1.00  0.00  0.00  0.00  0.00  0.00
  WS02006116WS02004401    1.00   0.05  0.00  0.00  0.95  0.00  0.00  0.00  0.00  0.00
  WS02006115WS02006116    1.00   0.05  0.00  0.00  0.91  0.00  0.00  0.05  0.00  0.00
  WS02006113WS02006111    1.00   0.03  0.00  0.00  0.01  0.96  0.00  0.00  0.09  0.00
  WS02006112WS02006115    1.00   0.03  0.02  0.00  0.95  0.00  0.00  0.00  0.00  0.00
  WS02006111WS02006112    1.00   0.03  0.00  0.00  0.97  0.00  0.00  0.00  0.93  0.00
  WS02006110WS02006113    1.00   0.01  0.02  0.00  0.97  0.00  0.00  0.00  0.00  0.00
  WS02006109WS02006110    1.00   0.00  0.01  0.00  0.99  0.00  0.00  0.00  0.00  0.00
  WS02004411WS02004412    1.00   0.10  0.00  0.00  0.90  0.00  0.00  0.00  0.00  0.00
  WS02004401WS02004402    1.00   0.05  0.00  0.00  0.95  0.00  0.00  0.00  0.04  0.00
  WS02004413WS02003067    1.00   0.11  0.03  0.00  0.00  0.00  0.87  0.00  0.00  0.00
  WS02004412WS02004413    1.00   0.11  0.00  0.00  0.88  0.01  0.00  0.00  0.00  0.00
  WS02004410WS02004411    1.00   0.10  0.00  0.00  0.90  0.00  0.00  0.00  0.00  0.00
  WS02004409WS02004410    1.00   0.10  0.00  0.00  0.90  0.00  0.00  0.00  0.00  0.00
  WS02004407WS02004409    1.00   0.10  0.00  0.00  0.89  0.01  0.00  0.00  0.80  0.00
  WS02004406WS02004407    1.00   0.00  0.10  0.00  0.90  0.00  0.00  0.00  0.00  0.00
  WS02004405WS02004406    1.00   0.00  0.00  0.00  1.00  0.00  0.00  0.00  0.04  0.00
  WS02004404WS02004405    1.00   0.00  0.00  0.00  1.00  0.00  0.00  0.00  0.02  0.00
  WS02004403WS02004404    1.00   0.00  0.05  0.00  0.95  0.00  0.00  0.00  0.04  0.00
  WS02004402WS02004403    1.00   0.05  0.00  0.00  0.95  0.00  0.00  0.00  0.00  0.00
  WS02004139WS02001211    1.00   0.00  0.00  0.00  1.00  0.00  0.00  0.00  0.00  0.00
  WS02004138WS02004139    1.00   0.00  0.00  0.00  0.00  0.00  0.00  1.00  0.00  0.00
  WS02003067WS02003066    1.00   0.13  0.01  0.00  0.86  0.00  0.00  0.00  0.00  0.00
  WS02001213WS02003059    1.00   0.00  0.00  0.00  0.99  0.00  0.00  0.00  0.00  0.00
  WS02001212WS02001213    1.00   0.01  0.50  0.00  0.48  0.00  0.00  0.00  0.43  0.00
  WS02001211WS02001212    1.00   0.00  0.01  0.00  0.99  0.00  0.00  0.00  0.54  0.00
  WS02003072WS02003073    1.00   0.00  0.00  0.00  0.00  0.00  0.00  1.00  0.00  0.00
  WS02003069WS02003072    1.00   0.00  0.00  0.00  1.00  0.00  0.00  0.00  0.92  0.00
  WS02003060WS02003069    1.00   0.00  0.00  0.00  0.98  0.02  0.00  0.00  0.81  0.00
  WS02003059WS02003060    1.00   0.00  0.00  0.00  1.00  0.00  0.00  0.00  0.08  0.00
  HS02004901HS02004770    1.00   0.06  0.00  0.00  0.94  0.00  0.00  0.00  0.00  0.00
  HS02004876HS02004881    1.00   0.01  0.00  0.00  0.79  0.20  0.00  0.00  0.00  0.00
  HS02004870HS02004876    1.00   0.00  0.00  0.00  0.99  0.00  0.00  0.00  0.95  0.00
  HS02004842HS02004848    1.00   0.00  0.06  0.00  0.94  0.00  0.00  0.00  0.57  0.00
  HS02004837HS02004842    1.00   0.00  0.00  0.00  1.00  0.00  0.00  0.00  0.11  0.00
  HS02004830HS02004837    1.00   0.00  0.00  0.00  1.00  0.00  0.00  0.00  0.99  0.00
  HS02004824HS02004830    1.00   0.00  0.00  0.00  1.00  0.00  0.00  0.00  0.00  0.00
  HS02004817HS02004824    1.00   0.00  0.00  0.00  1.00  0.00  0.00  0.00  0.95  0.00
  HS02004770HS02004777    1.00   0.00  0.06  0.00  0.94  0.00  0.00  0.00  0.02  0.00
  HS02004799HS02004480    1.00   0.00  0.02  0.00  0.93  0.00  0.05  0.00  0.00  0.00
  HS02004792HS02004799    1.00   0.00  0.00  0.00  0.99  0.01  0.00  0.00  0.98  0.00
  HS02004788HS02004792    1.00   0.00  0.00  0.00  0.99  0.01  0.00  0.00  0.98  0.00
  HS02004785HS02004788    1.00   0.00  0.00  0.00  1.00  0.00  0.00  0.00  0.00  0.00
  HS02004777HS02004785    1.00   0.00  0.00  0.00  1.00  0.00  0.00  0.00  0.11  0.00
  HS02004480HS02004478    1.00   0.06  0.00  0.00  0.56  0.00  0.00  0.38  0.00  0.00
  HS02004479HS02004480    1.00   0.02  0.00  0.00  0.98  0.00  0.00  0.00  0.11  0.00
  HS02004862HS02004870    1.00   0.00  0.00  0.00  1.00  0.00  0.00  0.00  0.03  0.00
  HS02004848HS02004852    1.00   0.06  0.00  0.00  0.94  0.00  0.00  0.00  0.75  0.00
  HS02004856HS02004862    1.00   0.00  0.07  0.00  0.93  0.00  0.00  0.00  0.84  0.00
  HS02004852HS02004856    1.00   0.06  0.00  0.00  0.94  0.00  0.00  0.00  0.79  0.00
  HS02004802HS02004478    1.00   0.06  0.00  0.00  0.94  0.00  0.00  0.00  0.02  0.00
  HS02004478WS02006287    1.00   0.07  0.00  0.00  0.62  0.31  0.00  0.00  0.64  0.00
  HS02004817HS02004807    1.00   0.00  0.06  0.00  0.94  0.00  0.00  0.00  0.01  0.00
  HS02004807HS02004802    1.00   0.06  0.00  0.00  0.93  0.00  0.00  0.01  0.00  0.00
  YS02001759YS02001757    1.00   0.00  0.00  0.00  1.00  0.00  0.00  0.00  0.15  0.00
  YS02001762YS02001759    1.00   0.00  0.00  0.00  1.00  0.00  0.00  0.00  0.03  0.00
  YS02001765YS02001762    1.00   0.00  0.00  0.00  1.00  0.00  0.00  0.00  0.13  0.00
  YS02001770YS02001767    1.00   0.00  0.00  0.00  1.00  0.00  0.00  0.00  0.00  0.00
  YS02001774YS02001770    1.00   0.00  0.06  0.00  0.94  0.00  0.00  0.00  0.02  0.00
  YS02001779YS02001774    1.00   0.00  0.00  0.00  1.00  0.00  0.00  0.00  0.17  0.00
  YS02001649YS02001757    1.00   0.00  0.00  0.00  1.00  0.00  0.00  0.00  0.15  0.00
  YS02001767YS02001765    1.00   0.00  0.00  0.00  1.00  0.00  0.00  0.00  0.00  0.00
  YS02006561YS02001783    1.00   0.08  0.00  0.00  0.34  0.58  0.00  0.00  0.45  0.00
  YS02001783YS02001784    1.00   0.00  0.08  0.00  0.92  0.00  0.00  0.00  0.00  0.00
  YS02001784YS02001785    1.00   0.00  0.00  0.00  1.00  0.00  0.00  0.00  0.16  0.00
  YS02001788YS02001790    1.00   0.00  0.00  0.00  0.38  0.62  0.00  0.00  0.43  0.00
  YS02001790YS02001791    1.00   0.00  0.00  0.00  0.29  0.71  0.00  0.00  0.53  0.00
  YS02001791YS02001793    1.00   0.00  0.00  0.00  0.30  0.70  0.00  0.00  0.01  0.00
  YS02001910YS02001907    1.00   0.00  0.00  0.00  0.98  0.00  0.00  0.01  0.12  0.00
  YS02001786YS02001788    1.00   0.00  0.00  0.00  0.41  0.59  0.00  0.00  0.00  0.00
  YS02001915YS02001910    1.00   0.00  0.00  0.00  0.99  0.01  0.00  0.00  0.14  0.00
  YS02001918YS02001915    1.00   0.00  0.00  0.00  0.99  0.01  0.00  0.00  0.53  0.00
  YS02001923YS02001920    1.00   0.00  0.00  0.00  1.00  0.00  0.00  0.00  0.76  0.00
  YS02001926YS02001923    1.00   0.00  0.04  0.00  0.25  0.00  0.71  0.00  0.00  0.00
  YS02001929YS02001926    1.00   0.00  0.06  0.00  0.94  0.00  0.00  0.00  0.69  0.00
  YS02001920YS02001918    1.00   0.00  0.00  0.00  1.00  0.00  0.00  0.00  0.00  0.00
  YS02001629YS02163301    1.00   0.07  0.00  0.00  0.93  0.00  0.00  0.00  0.00  0.00
  YS02001619YS02001622    1.00   0.06  0.00  0.00  0.94  0.00  0.00  0.00  0.00  0.00
  YS02001622YS02001625    1.00   0.06  0.00  0.00  0.94  0.00  0.00  0.00  0.04  0.00
  YS02001625YS02001629    1.00   0.06  0.02  0.00  0.89  0.00  0.03  0.00  0.00  0.00
  YS02163301YS02001633    1.00   0.00  0.07  0.00  0.93  0.00  0.00  0.00  0.00  0.00
  YS02163601YS02164001    1.00   0.00  0.04  0.00  0.96  0.00  0.00  0.00  0.00  0.00
  YS02164001YS02001641    1.00   0.01  0.03  0.00  0.96  0.00  0.00  0.00  0.05  0.00
  YS02001641YS02001644    1.00   0.00  0.00  0.00  1.00  0.00  0.00  0.00  0.00  0.00
  YS02001647YS02001649    1.00   0.00  0.08  0.00  0.92  0.00  0.00  0.00  0.01  0.00
  YS02006553YS02006556    1.00   0.01  0.00  0.00  0.99  0.00  0.00  0.00  0.03  0.00
  YS02006556YS02006558    1.00   0.00  0.00  0.00  1.00  0.00  0.00  0.00  0.00  0.00
  YSB6556YSB1171          1.00   0.02  0.04  0.00  0.94  0.00  0.00  0.00  0.00  0.00
  YS02001907YS02006553    1.00   0.00  0.01  0.00  0.99  0.00  0.00  0.00  0.00  0.00
  YS02006558YS02006561    1.00   0.08  0.00  0.00  0.27  0.65  0.00  0.00  0.48  0.00
  YS02001633YS02163601    1.00   0.00  0.01  0.00  0.99  0.00  0.00  0.00  0.14  0.00
  YS02001644YS02001647    1.00   0.00  0.08  0.00  0.92  0.00  0.00  0.00  0.00  0.00
  YS02001745YS02001748    1.00   0.00  0.00  0.00  0.85  0.01  0.00  0.15  0.02  0.00
  YS02001748YS02001751    1.00   0.00  0.00  0.00  0.95  0.05  0.00  0.00  0.14  0.00
  YS02001751YS02001754    1.00   0.00  0.00  0.00  0.91  0.00  0.00  0.09  0.02  0.00
  YS02001754YS02001757    1.00   0.00  0.00  0.00  1.00  0.00  0.00  0.00  0.17  0.00
  YS02001882YS02001884    1.00   0.07  0.00  0.00  0.93  0.00  0.00  0.00  0.00  0.00
  YS02001884YS02001887    1.00   0.03  0.02  0.00  0.95  0.00  0.00  0.00  0.00  0.00
  YS02001890YS02001895    1.00   0.00  0.07  0.00  0.93  0.00  0.00  0.00  0.00  0.00
  YS02001895YS02001898    1.00   0.07  0.00  0.00  0.91  0.00  0.02  0.00  0.00  0.00
  YS02001898YS02001901    1.00   0.07  0.00  0.00  0.93  0.00  0.00  0.00  0.01  0.00
  YS02001901YS02001904    1.00   0.07  0.00  0.00  0.93  0.00  0.00  0.00  0.00  0.00
  YS02001904YS02001907    1.00   0.00  0.07  0.00  0.93  0.00  0.00  0.00  0.00  0.00
  YS02001887YS02001890    1.00   0.00  0.00  0.00  0.98  0.00  0.01  0.00  0.00  0.00
  YS02001652YS02001649    1.00   0.00  0.00  0.00  1.00  0.00  0.00  0.00  0.15  0.00
  YS02001655YS02001652    1.00   0.00  0.00  0.00  0.91  0.00  0.00  0.09  0.02  0.00
  YS02001658YS02001655    1.00   0.00  0.06  0.00  0.89  0.05  0.00  0.00  0.05  0.00
  YS02001661YS02001658    1.00   0.06  0.00  0.00  0.85  0.09  0.00  0.00  0.02  0.00
  YS02001664YS02001661    1.00   0.06  0.00  0.00  0.86  0.08  0.00  0.00  0.14  0.00
  YSB1154YSB6556          1.00   0.06  0.00  0.00  0.94  0.00  0.00  0.00  0.01  0.00
  YSB1174YSB1171          1.00   0.02  0.02  0.00  0.96  0.00  0.00  0.00  0.00  0.00
  YSB1171HS02004479       1.00   0.02  0.00  0.00  0.97  0.00  0.00  0.01  0.10  0.00
  HS02004881HS02006253    1.00   0.03  0.00  0.00  0.00  0.00  0.00  0.97  0.00  0.00
  YS02001793JiankangQianchi    1.00   0.00  0.00  0.00  0.36  0.64  0.00  0.00  0.07  0.00
  YS02001757CaochengTiaoxuchi    1.00   0.00  0.11  0.00  0.81  0.08  0.00  0.00  0.00  0.00
  WSF200WS02003060        1.00   0.00  0.14  0.00  0.00  0.86  0.00  0.00  0.58  0.00
  1                       1.00   0.00  0.00  0.00  0.00  1.00  0.00  0.00  0.24  0.00
  
  
  *************************
  Conduit Surcharge Summary
  *************************
  
  ----------------------------------------------------------------------------
                                                           Hours        Hours 
                         --------- Hours Full --------   Above Full   Capacity
  Conduit                Both Ends  Upstream  Dnstream   Normal Flow   Limited
  ----------------------------------------------------------------------------
  WS02006229WS02006228        0.40      0.44      0.40      1.25         0.40
  WS02006256WS02006235        0.01      0.01      6.58      6.53         0.01
  WS02006252WS02006251        6.34      6.34      6.36      6.35         0.01
  WS02006235WS02006234        0.01      0.01      0.01      0.36         0.01
  WS02006231WS02006230        0.01      0.01      0.01      0.54         0.01
  WS02006230WS02006229        0.68      0.68      0.69      2.57         0.01
  WS02006228WS02006109        0.42      0.55      0.42      1.55         0.42
  WS02006111WS02006112        0.01      0.01      1.36      0.01         0.01
  WS02006110WS02006113        0.01      0.01      0.49      0.01         0.01
  WS02006109WS02006110        0.01      0.01      0.56      0.01         0.01
  WS02004404WS02004405        0.01      0.01      0.01      2.23         0.01
  HS02004876HS02004881        0.01      0.01      0.01      0.33         0.01
  HS02004785HS02004788        0.01      0.01      0.01      0.24         0.01
  HS02004480HS02004478        0.01      0.01      0.01      0.98         0.01
  YS02001759YS02001757        6.21      6.21      6.25      0.01         0.01
  YS02001762YS02001759        6.19      6.19      6.21      0.01         0.01
  YS02001765YS02001762        6.17      6.17      6.19      0.01         0.01
  YS02001770YS02001767        6.16      6.16      6.16      0.46         1.09
  YS02001774YS02001770        6.15      6.15      6.18      0.01         0.01
  YS02001779YS02001774        6.06      6.06      6.18      0.01         0.01
  YS02001649YS02001757        6.19      6.19      6.25      0.01         0.01
  YS02001767YS02001765        6.16      6.16      6.17      0.01         0.01
  YS02006561YS02001783        1.45      1.45      1.97      0.01         0.01
  YS02001783YS02001784        1.96      1.97      1.97      1.92         1.80
  YS02001784YS02001785        1.89      1.97      1.89      2.70         1.89
  YS02001788YS02001790        1.74      1.74      1.82      0.01         0.01
  YS02001790YS02001791        1.82      1.82      1.84      1.40         1.19
  YS02001791YS02001793        1.84      1.84      1.96      0.01         0.01
  YS02001910YS02001907        1.81      1.81      2.19      0.01         0.01
  YS02001786YS02001788        1.74      1.89      1.74      2.34         1.74
  YS02001915YS02001910        1.61      1.61      1.81      0.01         0.01
  YS02001918YS02001915        1.36      1.36      1.61      0.01         0.01
  YS02001923YS02001920        1.19      1.19      1.40      0.01         0.01
  YS02001920YS02001918        1.36      1.36      1.40      0.01         0.01
  YS02001629YS02163301        6.15      6.15      6.16      0.01         0.01
  YS02001619YS02001622        6.00      6.00      6.01      0.01         0.02
  YS02001622YS02001625        6.01      6.01      6.13      0.01         0.01
  YS02001625YS02001629        6.00      6.00      6.13      0.01         0.01
  YS02163301YS02001633        6.16      6.16      6.18      0.01         0.01
  YS02163601YS02164001        6.18      6.18      6.19      0.01         0.01
  YS02164001YS02001641        6.18      6.18      6.18      0.01         0.02
  YS02001641YS02001644        6.18      6.18      6.18      2.08         2.01
  YS02001647YS02001649        6.10      6.10      6.19      0.01         0.01
  YS02006553YS02006556        1.99      1.99      2.27      0.01         0.01
  YS02006556YS02006558        2.08      2.08      2.33      0.01         0.01
  YS02001907YS02006553        2.74      2.74      2.92      0.01         0.01
  YS02006558YS02006561        1.63      1.96      1.63      2.57         1.63
  YS02001633YS02163601        6.17      6.17      6.19      0.01         0.01
  YS02001644YS02001647        6.10      6.10      6.18      0.01         0.01
  YS02001745YS02001748        0.01      0.01      5.18      0.01         0.01
  YS02001748YS02001751        5.53      5.53      6.00      0.01         0.01
  YS02001751YS02001754        6.00      6.00      6.07      0.01         0.01
  YS02001754YS02001757        6.09      6.09      6.25      0.01         0.01
  YS02001882YS02001884        1.62      1.62      1.65      0.01         0.01
  YS02001884YS02001887        1.71      1.71      1.73      0.01         0.01
  YS02001890YS02001895        1.59      1.59      1.82      0.01         0.01
  YS02001895YS02001898        1.58      1.58      1.59      0.01         0.01
  YS02001898YS02001901        1.60      1.60      1.70      0.01         0.01
  YS02001901YS02001904        1.68      1.68      1.70      0.01         0.01
  YS02001904YS02001907        1.68      1.68      2.29      0.01         0.01
  YS02001887YS02001890        1.76      1.76      1.79      0.01         0.01
  YS02001652YS02001649        6.10      6.10      6.19      0.01         0.01
  YS02001655YS02001652        6.00      6.00      6.09      0.01         0.01
  YS02001658YS02001655        5.26      5.26      6.00      0.01         0.01
  YS02001661YS02001658        0.12      0.12      5.26      0.01         0.01
  YS02001664YS02001661        0.01      0.01      1.05      0.01         0.01
  YS02001793JiankangQianchi        1.93      1.93      2.47      0.01         0.01
  YS02001757CaochengTiaoxuchi        5.40      5.40      6.25      0.01         0.01
  
  
  ***************
  Pumping Summary
  ***************
  
  ---------------------------------------------------------------------------------------------------------
                                                  Min       Avg       Max     Total     Power    % Time Off
                        Percent   Number of      Flow      Flow      Flow    Volume     Usage    Pump Curve
  Pump                 Utilized   Start-Ups       LPS       LPS       LPS  10^6 ltr     Kw-hr    Low   High
  ---------------------------------------------------------------------------------------------------------
  CC-Pump-1               80.02           1      0.00    197.60    200.00     4.581      8.42    0.0    7.8
  CC-Pump-2               80.02           1      0.00    197.60    200.00     4.581      8.42    0.0    7.8
  JK-Pump-1                0.00           0      0.00      0.00      0.00     0.000      0.00    0.0    0.0
  JK-Pump-2              100.00           1      0.00    390.95    683.00     9.677    132.58    0.0   98.3
  XR-Pump-1                0.00           0      0.00      0.00      0.00     0.000      0.00    0.0    0.0
  XR-Pump-2              100.00           1      0.00     95.00     95.00     2.736     16.24    0.0    0.0
  XR-Pump-3                0.00           0      0.00      0.00      0.00     0.000      0.00    0.0    0.0
  XR-Pump-4              100.00           1      0.00     95.00     95.00     2.736     16.24    0.0    0.0
  
  
  ***************************
  Link Pollutant Load Summary
  ***************************
  
  ------------------------------------------------------------------------------------------
                                 COD            SS            TN            TP         NH4-N
  Link                            kg            kg            kg            kg            kg
  ------------------------------------------------------------------------------------------
  WS02003066WSF200           377.927       722.361        11.248         1.070         6.089
  WS02006287WS02006284       371.283       712.737        11.404         1.100         6.215
  WS02006284WS02006280       371.793       713.557        11.453         1.106         6.246
  WS02006280WS02006229       371.773       713.527        11.450         1.106         6.244
  WS02006229WS02006228       367.844       701.553        11.286         1.085         6.149
  WS02006256WS02006235       323.611       616.636         6.392         0.464         3.135
  WS02006253WS02006251        63.281       126.613         1.321         0.095         0.643
  WS02006252WS02006251       839.652      1574.628        16.350         1.117         7.874
  WS02006251WS02006249       156.453       294.847         3.066         0.211         1.478
  WS02006249WS02006248       156.170       294.335         3.059         0.210         1.475
  WS02006248WS02006247       156.011       294.060         3.055         0.210         1.473
  WS02006247WS02006245       155.784       293.654         3.050         0.209         1.471
  WS02006245WS02006243       155.491       293.127         3.044         0.209         1.468
  WS02006243WS02006242       155.160       292.542         3.037         0.209         1.464
  WS02006242WS02006240       154.756       291.822         3.028         0.208         1.460
  WS02006240WS02006239       154.504       291.370         3.023         0.208         1.457
  WS02006239WS02006238       154.181       290.784         3.016         0.207         1.454
  WS02006238WS02006235       154.157       290.747         3.016         0.207         1.454
  WS02006235WS02006234        60.880       118.414         1.279         0.098         0.634
  WS02006234WS02006232        61.561       119.776         1.294         0.099         0.642
  WS02006232WS02006231        62.541       121.722         1.317         0.101         0.653
  WS02006231WS02006230        63.132       122.890         1.330         0.102         0.660
  WS02006230WS02006229        65.348       127.247         1.384         0.107         0.687
  WS02006228WS02006109       367.097       700.338        11.221         1.077         6.109
  WS02006116WS02004401       385.752       734.968        11.916         1.152         6.504
  WS02006115WS02006116       386.436       736.064        11.983         1.160         6.545
  WS02006113WS02006111       374.098       711.536        11.904         1.162         6.536
  WS02006112WS02006115       387.053       737.057        12.036         1.167         6.578
  WS02006111WS02006112       373.844       711.143        11.877         1.159         6.519
  WS02006110WS02006113       374.236       711.747        11.917         1.164         6.545
  WS02006109WS02006110       374.986       712.942        11.986         1.172         6.587
  WS02004411WS02004412       379.801       725.288        11.419         1.091         6.196
  WS02004401WS02004402       384.873       733.542        11.843         1.143         6.458
  WS02004413WS02003067       378.488       723.313        11.288         1.074         6.114
  WS02004412WS02004413       379.067       724.102        11.355         1.083         6.156
  WS02004410WS02004411       380.299       726.101        11.462         1.096         6.223
  WS02004409WS02004410       380.657       726.664        11.496         1.100         6.244
  WS02004407WS02004409       380.986       727.214        11.523         1.104         6.261
  WS02004406WS02004407       381.145       727.499        11.534         1.105         6.267
  WS02004405WS02004406       382.839       730.213        11.684         1.124         6.361
  WS02004404WS02004405       383.817       731.848        11.761         1.133         6.408
  WS02004403WS02004404       383.155       730.755        11.698         1.125         6.369
  WS02004402WS02004403       383.953       732.041        11.765         1.133         6.410
  WS02004139WS02001211        82.336       140.338         6.187         0.751         3.804
  WS02004138WS02004139       758.416      1267.778        60.204         7.327        37.050
  WS02003067WS02003066       377.926       722.337        11.251         1.070         6.092
  WS02001213WS02003059        34.556        63.964         1.582         0.175         0.925
  WS02001212WS02001213        31.748        59.630         1.286         0.138         0.739
  WS02001211WS02001212        31.140        58.361         1.283         0.138         0.739
  WS02003072WS02003073       460.137       843.761        21.160         2.335        12.359
  WS02003069WS02003072       461.268       845.407        21.292         2.352        12.443
  WS02003060WS02003069       459.555       842.674        21.126         2.331        12.338
  WS02003059WS02003060        38.741        72.126         1.694         0.186         0.984
  HS02004901HS02004770        15.688        30.642         0.297         0.022         0.140
  HS02004876HS02004881        53.860       107.607         1.167         0.085         0.571
  HS02004870HS02004876        40.832        81.446         0.928         0.069         0.458
  HS02004842HS02004848         7.780        15.054         0.161         0.011         0.074
  HS02004837HS02004842        12.401        22.391         0.630         0.070         0.369
  HS02004830HS02004837        76.062       134.148         4.828         0.571         2.929
  HS02004824HS02004830        76.843       135.408         4.901         0.580         2.975
  HS02004817HS02004824       107.635       197.874         5.528         0.620         3.279
  HS02004770HS02004777        59.820       118.340         1.228         0.084         0.568
  HS02004799HS02004480       193.518       373.327         4.894         0.427         2.513
  HS02004792HS02004799       175.985       337.424         4.612         0.412         2.385
  HS02004788HS02004792        97.323       186.970         2.977         0.279         1.591
  HS02004785HS02004788        61.281       120.675         1.379         0.103         0.664
  HS02004777HS02004785        60.591       119.564         1.316         0.095         0.625
  HS02004480HS02004478       242.938       471.644         5.732         0.487         2.909
  HS02004479HS02004480        53.018       104.085         1.153         0.100         0.593
  HS02004862HS02004870        30.903        60.788         0.732         0.057         0.364
  HS02004848HS02004852        12.660        24.766         0.258         0.018         0.119
  HS02004856HS02004862        21.099        42.092         0.421         0.028         0.198
  HS02004852HS02004856        12.669        24.780         0.258         0.018         0.119
  HS02004802HS02004478       129.175       242.430         5.735         0.620         3.345
  HS02004478WS02006287       371.460       713.018        11.421         1.102         6.226
  HS02004817HS02004807       106.347       195.815         5.401         0.604         3.200
  HS02004807HS02004802       129.401       242.784         5.769         0.625         3.366
  YS02001759YS02001757       514.851       967.724        10.088         0.700         4.915
  YS02001762YS02001759       194.701       363.872         4.115         0.286         2.032
  YS02001765YS02001762       195.062       365.213         4.142         0.289         2.049
  YS02001770YS02001767       194.487       365.981         3.920         0.257         1.902
  YS02001774YS02001770       227.298       446.016         4.389         0.289         2.120
  YS02001779YS02001774       226.040       443.509         4.452         0.300         2.167
  YS02001649YS02001757       384.291       696.032         7.619         0.541         3.639
  YS02001767YS02001765       195.849       367.253         4.174         0.292         2.066
  YS02006561YS02001783      1165.988      2184.681        24.164         1.794        11.988
  YS02001783YS02001784      1165.920      2184.607        24.161         1.793        11.986
  YS02001784YS02001785      1173.473      2196.760        24.889         1.885        12.441
  YS02001788YS02001790      1174.204      2198.023        24.965         1.894        12.489
  YS02001790YS02001791      1175.364      2200.027        25.067         1.907        12.553
  YS02001791YS02001793      1175.302      2199.934        25.063         1.907        12.550
  YS02001910YS02001907       471.962       880.191        10.963         0.823         5.573
  YS02001786YS02001788      1173.762      2197.303        24.919         1.889        12.460
  YS02001915YS02001910       472.005       880.244        10.919         0.816         5.544
  YS02001918YS02001915       228.365       407.954         5.945         0.526         3.162
  YS02001923YS02001920       205.237       369.732         3.912         0.275         1.899
  YS02001926YS02001923       203.605       366.947         3.827         0.266         1.848
  YS02001929YS02001926       203.127       366.142         3.786         0.261         1.823
  YS02001920YS02001918       225.938       403.006         5.872         0.520         3.122
  YS02001629YS02163301        89.189       157.729         1.896         0.123         0.885
  YS02001619YS02001622       214.059       395.446         4.354         0.287         2.040
  YS02001622YS02001625       212.978       393.746         4.328         0.285         2.027
  YS02001625YS02001629        89.850       158.837         1.911         0.124         0.892
  YS02163301YS02001633        89.833       158.847         1.906         0.124         0.891
  YS02163601YS02164001       468.560       855.573         9.058         0.649         4.346
  YS02164001YS02001641       468.311       855.157         9.043         0.648         4.337
  YS02001641YS02001644       468.898       856.096         9.048         0.648         4.338
  YS02001647YS02001649       427.207       779.234         8.414         0.596         4.006
  YS02006553YS02006556       764.197      1418.839        16.238         1.235         8.145
  YS02006556YS02006558       764.323      1419.076        16.207         1.231         8.124
  YSB6556YSB1171              30.758        60.590         0.612         0.050         0.307
  YS02001907YS02006553       764.206      1418.867        16.254         1.238         8.156
  YS02006558YS02006561      1165.946      2184.583        24.163         1.794        11.987
  YS02001633YS02163601       469.159       856.483         9.035         0.645         4.327
  YS02001644YS02001647       434.011       792.238         8.530         0.604         4.062
  YS02001745YS02001748       294.756       559.387         5.838         0.362         2.802
  YS02001748YS02001751       294.211       558.447         5.849         0.365         2.812
  YS02001751YS02001754       293.327       557.007         5.834         0.364         2.805
  YS02001754YS02001757       294.194       558.328         6.003         0.387         2.914
  YS02001882YS02001884         2.171         3.750         0.044         0.003         0.022
  YS02001884YS02001887         6.886        12.348         0.132         0.010         0.066
  YS02001890YS02001895       547.337      1039.091        10.068         0.759         4.910
  YS02001895YS02001898       547.213      1038.961        10.062         0.758         4.907
  YS02001898YS02001901       547.024      1038.621        10.058         0.758         4.905
  YS02001901YS02001904       546.903      1038.466        10.065         0.759         4.910
  YS02001904YS02001907       547.163      1038.858        10.119         0.766         4.945
  YS02001887YS02001890       560.942      1065.665        10.348         0.782         5.052
  YS02001652YS02001649       257.623       483.168         5.154         0.371         2.418
  YS02001655YS02001652       258.417       484.399         5.175         0.373         2.429
  YS02001658YS02001655       258.219       484.069         5.094         0.362         2.374
  YS02001661YS02001658       259.092       485.520         5.115         0.363         2.384
  YS02001664YS02001661       267.362       498.629         5.309         0.376         2.472
  YSB1154YSB6556              30.342        59.930         0.564         0.044         0.277
  YSB1174YSB1171              20.753        41.084         0.409         0.033         0.203
  YSB1171HS02004479           52.963       103.991         1.157         0.100         0.595
  HS02004881HS02006253        60.471       121.037         1.291         0.093         0.631
  YS02001793JiankangQianchi      1175.449      2200.231        25.064         1.907        12.550
  YS02001757CaochengTiaoxuchi      1032.547      1916.738        20.423         1.397         9.852
  WSF200WS02003060           377.752       722.032        11.239         1.069         6.084
  1                          472.051       862.419        22.369         2.487        13.117
  CC-Pump-1                  419.858       787.368         8.176         0.559         3.937
  CC-Pump-2                  419.858       787.368         8.176         0.559         3.937
  JK-Pump-1                    0.000         0.000         0.000         0.000         0.000
  JK-Pump-2                  778.646      1483.116        15.390         1.117         7.549
  XR-Pump-1                    0.000         0.000         0.000         0.000         0.000
  XR-Pump-2                  379.637       634.595        30.138         3.668        18.547
  XR-Pump-3                    0.000         0.000         0.000         0.000         0.000
  XR-Pump-4                  379.637       634.595        30.138         3.668        18.547
  3                          746.705      1406.706        14.652         1.008         7.069
  5                          480.389       917.092         9.507         0.685         4.645
  6                          842.714      1411.264        66.577         8.102        40.970
  

  Analysis begun on:  Thu Jul  8 15:17:38 2021
  Analysis ended on:  Thu Jul  8 15:17:40 2021
  Total elapsed time: 00:00:02