
  EPA STORM WATER MANAGEMENT MODEL - VERSION 5.1 (Build 5.3.0.dev0)
  --------------------------------------------------------------

  WARNING 04: minimum elevation drop used for Conduit WS02004404WS02004405
  WARNING 03: negative offset ignored for Link YS02001904YS02001907
  
  *********************************************************
  NOTE: The summary statistics displayed in this report are
  based on results found at every computational time step,  
  not just on results from each reporting time step.
  *********************************************************
  
  ****************
  Analysis Options
  ****************
  Flow Units ............... LPS
  Process Models:
    Rainfall/Runoff ........ YES
    RDII ................... NO
    Snowmelt ............... NO
    Groundwater ............ NO
    Flow Routing ........... YES
    Ponding Allowed ........ NO
    Water Quality .......... YES
  Infiltration Method ...... HORTON
  Flow Routing Method ...... DYNWAVE
  Surcharge Method ......... EXTRAN
  Starting Date ............ 08/28/2015 08:00:00
  Ending Date .............. 08/28/2015 16:00:00
  Antecedent Dry Days ...... 8.0
  Report Time Step ......... 00:01:00
  Wet Time Step ............ 00:01:00
  Dry Time Step ............ 00:01:00
  Routing Time Step ........ 5.00 sec
  Variable Time Step ....... YES
  Maximum Trials ........... 8
  Number of Threads ........ 4
  Head Tolerance ........... 0.001500 m
  
  
  **************************        Volume         Depth
  Runoff Quantity Continuity     hectare-m            mm
  **************************     ---------       -------
  Total Precipitation ......         5.417        11.860
  Evaporation Loss .........         0.000         0.000
  Infiltration Loss ........         0.972         2.128
  Surface Runoff ...........         3.630         7.947
  Final Storage ............         0.817         1.788
  Continuity Error (%) .....        -0.018
  
  
  **************************           COD            SS            TN            TP         NH4-N
  Runoff Quality Continuity             kg            kg            kg            kg            kg
  **************************    ----------    ----------    ----------    ----------    ----------
  Initial Buildup ..........     41378.656     70582.865      1804.177       168.684      1032.807
  Surface Buildup ..........        21.757        40.198         2.427         0.221         1.412
  Wet Deposition ...........         0.000         0.000         0.000         0.000         0.000
  Sweeping Removal .........         0.000         0.000         0.000         0.000         0.000
  Infiltration Loss ........        85.149       160.322         1.619         0.113         0.770
  BMP Removal ..............         0.000         0.000         0.000         0.000         0.000
  Surface Runoff ...........      3104.028      5735.036        60.177         4.073        28.563
  Remaining Buildup ........     38210.135     64725.637      1744.786       164.717      1004.876
  Continuity Error (%) .....         0.003         0.003         0.001         0.001         0.001
  
  
  **************************        Volume        Volume
  Flow Routing Continuity        hectare-m      10^6 ltr
  **************************     ---------     ---------
  Dry Weather Inflow .......         0.630         6.296
  Wet Weather Inflow .......         3.629        36.286
  Groundwater Inflow .......         0.000         0.000
  RDII Inflow ..............         0.000         0.000
  External Inflow ..........         0.105         1.045
  External Outflow .........         1.493        14.928
  Flooding Loss ............         2.717        27.168
  Evaporation Loss .........         0.000         0.000
  Exfiltration Loss ........         0.000         0.000
  Initial Stored Volume ....         0.076         0.761
  Final Stored Volume ......         0.602         6.025
  Continuity Error (%) .....        -8.408
  
  
  **************************           COD            SS            TN            TP         NH4-N
  Quality Routing Continuity            kg            kg            kg            kg            kg
  **************************    ----------    ----------    ----------    ----------    ----------
  Dry Weather Inflow .......      1573.993      2518.389       151.103        18.888        94.440
  Wet Weather Inflow .......      3103.637      5734.440        60.168         4.073        28.559
  Groundwater Inflow .......         0.000         0.000         0.000         0.000         0.000
  RDII Inflow ..............         0.000         0.000         0.000         0.000         0.000
  External Inflow ..........       187.321       299.713        17.983         2.248        11.239
  External Outflow .........      1465.762      2524.118        98.182        11.671        59.705
  Flooding Loss ............      2372.252      4230.907        94.543         9.902        54.060
  Exfiltration Loss ........         0.000         0.000         0.000         0.000         0.000
  Mass Reacted .............         0.000         0.000         0.000         0.000         0.000
  Initial Stored Mass ......         0.000         0.000         0.000         0.000         0.000
  Final Stored Mass ........       601.611      1060.682        25.147         2.665        14.481
  Continuity Error (%) .....         8.743         8.615         4.965         3.847         4.463
  
  
  *************************
  Highest Continuity Errors
  *************************
  Node JK-storage (-37.96%)
  Node HS02004842 (14.80%)
  Node YS02001884 (11.50%)
  Node WS02003059 (9.52%)
  Node WS02006238 (2.84%)
  
  
  ***************************
  Time-Step Critical Elements
  ***************************
  Link YS02001793JiankangQianchi (62.78%)
  Link WS02006280WS02006229 (17.75%)
  Link YS02006556YS02006558 (4.26%)
  Link YS02001791YS02001793 (2.14%)
  Link YS02006558YS02006561 (1.86%)
  
  
  ********************************
  Highest Flow Instability Indexes
  ********************************
  Link YS02001619YS02001622 (48)
  Link YS02163601YS02164001 (47)
  Link YS02001629YS02163301 (47)
  Link YS02163301YS02001633 (46)
  Link YS02164001YS02001641 (44)
  
  
  *************************
  Routing Time Step Summary
  *************************
  Minimum Time Step           :     0.50 sec
  Average Time Step           :     2.16 sec
  Maximum Time Step           :     5.00 sec
  Percent in Steady State     :    -0.00
  Average Iterations per Step :     4.98
  Percent Not Converging      :    27.26
  
  
  ***************************
  Subcatchment Runoff Summary
  ***************************
  
  ------------------------------------------------------------------------------------------------------------------------------
                            Total      Total      Total      Total     Imperv       Perv      Total       Total     Peak  Runoff
                           Precip      Runon       Evap      Infil     Runoff     Runoff     Runoff      Runoff   Runoff   Coeff
  Subcatchment                 mm         mm         mm         mm         mm         mm         mm    10^6 ltr      LPS
  ------------------------------------------------------------------------------------------------------------------------------
  sub0                      11.86       0.00       0.00       0.61      10.99       0.22      11.21        0.01     2.31   0.945
  sub1                      11.86       0.00       0.00       1.04      10.47       0.27      10.74        0.07    16.09   0.905
  sub2                      11.86       0.00       0.00       4.00       7.39       0.38       7.78        0.07    15.42   0.656
  sub3                      11.86       0.00       0.00       4.09       7.35       0.30       7.65        0.17    34.60   0.645
  sub4                      11.86       0.00       0.00       1.11      10.32       0.19      10.51        0.22    41.58   0.886
  sub5                      11.86       0.00       0.00       0.64      10.94       0.19      11.13        0.13    28.41   0.938
  sub7                      11.86       0.00       0.00       0.81      10.73       0.26      10.99        0.04     8.89   0.926
  sub8                      11.86       0.00       0.00       0.82      10.72       0.25      10.97        0.07    16.44   0.925
  sub9                      11.86       0.00       0.00       0.82      10.72       0.25      10.97        0.05    12.31   0.925
  sub10                     11.86       0.00       0.00       0.73      10.83       0.22      11.04        0.12    27.78   0.931
  sub11                     11.86       0.00       0.00       0.72      10.84       0.23      11.07        0.13    30.38   0.933
  sub12                     11.86       0.00       0.00       1.17      10.27       0.37      10.64        0.09    23.20   0.897
  sub14                     11.86       0.00       0.00       0.82      10.72       0.24      10.96        0.10    24.26   0.924
  sub15                     11.86       0.00       0.00       3.07       8.24       0.49       8.73        0.15    34.06   0.736
  sub16                     11.86       0.00       0.00       3.26       7.91       0.65       8.56        0.09    21.55   0.722
  sub17                     11.86       0.00       0.00       3.18       8.02       0.62       8.64        0.07    17.70   0.729
  sub22                     11.86       0.00       0.00       4.51       6.72       0.59       7.31        0.46   106.14   0.616
  sub23                     11.86       0.00       0.00       3.79       7.43       0.60       8.03        0.38    89.15   0.677
  sub60                     11.86       0.00       0.00       1.36       8.66       0.06       8.72        2.64   299.31   0.735
  sub61                     11.86       0.00       0.00       1.93       8.76       0.09       8.84        2.73   350.50   0.746
  sub62                     11.86       0.00       0.00       0.88       9.54       0.07       9.61        2.95   364.68   0.810
  sub63                     11.86       0.00       0.00       3.35       7.65       0.09       7.75        2.34   317.98   0.653
  sub64                     11.86       0.00       0.00       1.72       8.31       0.06       8.37        2.55   285.89   0.706
  sub65                     11.86       0.00       0.00       1.48       8.45       0.06       8.51        2.62   291.36   0.718
  sub66                     11.86       0.00       0.00       3.38       7.12       0.06       7.18        2.20   257.01   0.605
  sub67                     11.86       0.00       0.00       0.86      10.02       0.09      10.12        3.12   436.41   0.853
  sub68                     11.86       0.00       0.00       1.57       9.20       0.09       9.29        2.86   379.93   0.784
  sub69                     11.86       0.00       0.00       1.65       9.50       0.13       9.64        2.25   346.04   0.812
  sub70                     11.86       9.84       0.00       6.77      12.87       0.60      13.47        3.08   370.34   0.621
  sub71                     11.86       0.00       0.00       0.88       9.30       0.06       9.37        2.21   261.05   0.790
  sub72                     11.86       0.00       0.00       0.80       7.51       0.03       7.55        1.54   139.19   0.636
  1                         11.86      13.11       0.00       1.40      14.45       3.92      18.36        4.31   379.11   0.735
  2                         11.86       0.00       0.00       3.09       2.83       1.63       4.45        1.78   214.63   0.376
  
  
  ****************************
  Subcatchment Washoff Summary
  ****************************
  
  ------------------------------------------------------------------------------------------
                                 COD            SS            TN            TP         NH4-N
  Subcatchment                    kg            kg            kg            kg            kg
  ------------------------------------------------------------------------------------------
  sub0                         2.208         4.243         0.037         0.003         0.018
  sub1                         9.451        18.666         0.176         0.012         0.085
  sub2                         5.736        11.006         0.121         0.008         0.056
  sub3                        14.113        26.857         0.293         0.020         0.135
  sub4                        21.769        43.416         0.431         0.026         0.207
  sub5                        21.704        42.272         0.385         0.029         0.186
  sub7                         4.821         9.653         0.091         0.006         0.044
  sub8                         7.237        14.820         0.144         0.008         0.069
  sub9                         6.192        12.507         0.119         0.008         0.057
  sub10                       17.847        35.201         0.326         0.023         0.157
  sub11                       17.357        34.610         0.324         0.022         0.156
  sub12                       14.663        28.667         0.264         0.020         0.127
  sub14                       13.236        26.485         0.250         0.017         0.120
  sub15                       16.729        32.102         0.322         0.023         0.151
  sub16                       10.699        20.474         0.203         0.015         0.095
  sub17                        9.827        18.641         0.181         0.014         0.085
  sub22                       51.006        95.869         0.969         0.073         0.452
  sub23                       30.174        58.744         0.643         0.042         0.295
  sub60                      200.593       370.665         4.019         0.245         1.925
  sub61                      249.101       458.663         4.652         0.317         2.238
  sub62                      259.557       486.172         5.088         0.320         2.441
  sub63                      184.131       334.041         3.712         0.260         1.719
  sub64                      250.012       445.481         4.614         0.334         2.200
  sub65                      256.031       458.099         4.757         0.338         2.272
  sub66                      144.593       259.823         2.994         0.194         1.397
  sub67                      386.300       717.639         6.920         0.507         3.342
  sub68                      274.674       511.081         5.270         0.353         2.516
  sub69                      248.178       467.332         4.656         0.326         2.224
  sub70                      412.533       779.067         8.255         0.571         3.863
  sub71                      171.252       323.491         3.542         0.203         1.694
  sub72                      133.561       234.071         2.508         0.170         1.206
  1                          284.514       540.592         5.811         0.402         2.690
  2                           34.938        60.985         1.012         0.061         0.430
  ------------------------------------------------------------------------------------------
  System                    3764.739      6981.434        73.088         4.969        34.651
  
  
  ******************
  Node Depth Summary
  ******************
  
  ---------------------------------------------------------------------------------
                                 Average  Maximum  Maximum  Time of Max    Reported
                                   Depth    Depth      HGL   Occurrence   Max Depth
  Node                 Type       Meters   Meters   Meters  days hr:min      Meters
  ---------------------------------------------------------------------------------
  WS02001211           JUNCTION     0.24     0.29     5.13     0  02:35        0.29
  WS02001212           JUNCTION     0.03     0.12     5.19     0  02:34        0.12
  WS02001213           JUNCTION     0.33     0.48     5.24     0  02:33        0.48
  WS02003069           JUNCTION     0.19     0.34     4.92     0  02:34        0.34
  WS02003072           JUNCTION     0.24     0.41     4.78     0  02:34        0.41
  WS02003073           JUNCTION     0.13     0.24     4.31     0  02:35        0.24
  WS02003060           JUNCTION     0.17     0.31     5.24     0  02:33        0.31
  WS02003066           JUNCTION     0.15     0.26     5.82     0  02:32        0.26
  WS02003059           JUNCTION     0.41     0.55     5.24     0  02:33        0.55
  WS02003067           JUNCTION     0.40     0.64     5.96     0  02:31        0.64
  WS02004401           JUNCTION     0.46     0.74     6.74     0  02:28        0.74
  WS02004402           JUNCTION     0.49     0.77     6.73     0  02:28        0.77
  WS02004403           JUNCTION     0.52     0.79     6.72     0  02:28        0.79
  WS02004404           JUNCTION     0.59     0.86     6.71     0  02:28        0.86
  WS02004406           JUNCTION     0.61     0.87     6.70     0  02:28        0.87
  WS02004409           JUNCTION     0.27     0.56     6.33     0  02:30        0.56
  WS02004410           JUNCTION     0.30     0.58     6.30     0  02:31        0.58
  WS02004411           JUNCTION     0.32     0.59     6.27     0  02:31        0.59
  WS02004412           JUNCTION     0.34     0.61     6.25     0  02:31        0.61
  WS02004413           JUNCTION     0.49     0.77     6.24     0  02:31        0.77
  WS02004405           JUNCTION     0.59     0.86     6.71     0  02:28        0.86
  WS02006109           JUNCTION     0.51     0.80     7.42     0  02:24        0.80
  WS02006110           JUNCTION     0.53     0.79     7.38     0  02:24        0.79
  WS02006111           JUNCTION     0.13     0.24     6.95     0  02:24        0.24
  WS02006112           JUNCTION     0.60     0.91     6.80     0  02:27        0.91
  WS02006113           JUNCTION     0.19     0.37     7.27     0  02:24        0.37
  WS02006115           JUNCTION     0.34     0.63     6.77     0  02:27        0.63
  WS02006116           JUNCTION     0.43     0.71     6.75     0  02:28        0.71
  WS02006230           JUNCTION     0.40     0.72     7.47     0  02:24        0.72
  WS02006231           JUNCTION     0.17     0.33     7.46     0  02:24        0.33
  WS02006232           JUNCTION     0.27     0.41     7.45     0  02:24        0.41
  WS02006234           JUNCTION     0.15     0.28     7.43     0  02:25        0.28
  WS02006235           JUNCTION     0.16     0.23     7.40     0  02:26        0.23
  WS02006238           JUNCTION     0.18     0.25     7.40     0  02:26        0.25
  WS02006240           JUNCTION     0.05     0.11     7.40     0  02:27        0.11
  WS02006242           JUNCTION     0.08     0.15     7.42     0  02:28        0.15
  WS02006243           JUNCTION     0.02     0.07     7.49     0  02:28        0.07
  WS02006245           JUNCTION     0.03     0.09     7.58     0  02:26        0.09
  WS02006247           JUNCTION     0.03     0.11     7.61     0  02:26        0.11
  WS02006248           JUNCTION     0.02     0.07     7.66     0  02:24        0.07
  WS02006249           JUNCTION     0.04     0.11     7.71     0  02:24        0.11
  WS02006239           JUNCTION     0.12     0.19     7.40     0  02:26        0.19
  WS02006251           JUNCTION     0.02     0.08     7.75     0  02:22        0.08
  WS02006252           JUNCTION     0.00     0.00     8.24     0  00:00        0.00
  WS02006253           JUNCTION     0.12     0.30     7.94     0  02:22        0.30
  WS02006256           JUNCTION     2.07     2.35     9.28     0  00:00        2.35
  WS02004138           JUNCTION     0.14     0.14     7.39     0  00:00        0.14
  WS02004139           JUNCTION     0.16     0.17     5.08     0  02:36        0.17
  WS02004407           JUNCTION     0.12     0.25     6.56     0  02:28        0.25
  WS02006228           JUNCTION     0.49     0.80     7.45     0  02:24        0.80
  WS02006229           JUNCTION     0.45     0.78     7.47     0  02:24        0.78
  WS02006280           JUNCTION     0.08     0.21     8.48     0  02:23        0.21
  WS02006284           JUNCTION     0.38     0.57     8.97     0  02:23        0.57
  WS02006287           JUNCTION     0.12     0.31     9.26     0  02:22        0.31
  WSF200               JUNCTION     0.12     0.24     5.47     0  02:32        0.24
  HS02004901           JUNCTION     0.14     0.30    10.13     0  02:21        0.30
  HS02004881           JUNCTION     0.01     0.04     9.07     0  02:22        0.04
  HS02004876           JUNCTION     0.05     0.13     9.16     0  02:22        0.13
  HS02004870           JUNCTION     0.02     0.07     9.36     0  02:22        0.07
  HS02004862           JUNCTION     0.02     0.08     9.47     0  02:23        0.08
  HS02004856           JUNCTION     0.08     0.13     9.56     0  02:22        0.13
  HS02004852           JUNCTION     0.01     0.05     9.56     0  02:23        0.05
  HS02004848           JUNCTION     0.01     0.05     9.65     0  02:22        0.05
  HS02004842           JUNCTION     0.33     0.38     9.65     0  02:22        0.38
  HS02004837           JUNCTION     0.03     0.07     9.65     0  02:22        0.07
  HS02004830           JUNCTION     0.04     0.09     9.56     0  02:23        0.09
  HS02004824           JUNCTION     0.03     0.06     9.47     0  02:24        0.06
  HS02004817           JUNCTION     0.45     0.62     9.46     0  02:23        0.62
  HS02004807           JUNCTION     0.14     0.29     9.46     0  02:23        0.29
  HS02004802           JUNCTION     0.17     0.32     9.45     0  02:23        0.32
  HS02004799           JUNCTION     0.14     0.36     9.58     0  02:21        0.36
  HS02004792           JUNCTION     0.04     0.16     9.68     0  02:21        0.16
  HS02004788           JUNCTION     0.03     0.11    10.01     0  02:21        0.11
  HS02004785           JUNCTION     0.06     0.19    10.09     0  02:21        0.19
  HS02004777           JUNCTION     0.16     0.32    10.12     0  02:21        0.32
  HS02004770           JUNCTION     0.13     0.29    10.13     0  02:21        0.29
  HS02004480           JUNCTION     0.10     0.29     9.53     0  02:21        0.29
  HS02004479           JUNCTION     0.14     0.33     9.53     0  02:21        0.33
  HS02004478           JUNCTION     0.07     0.20     9.43     0  02:22        0.20
  YS02001745           JUNCTION     0.68     0.92     8.44     0  03:03        0.92
  YS02001748           JUNCTION     1.05     1.37     8.44     0  03:00        1.36
  YS02001751           JUNCTION     1.23     1.56     8.44     0  03:03        1.55
  YS02001754           JUNCTION     1.47     1.83     8.44     0  03:02        1.82
  YS02001762           JUNCTION     1.66     2.04     8.44     0  03:43        2.02
  YS02001765           JUNCTION     1.62     1.98     8.43     0  03:43        1.97
  YS02001767           JUNCTION     1.58     1.94     8.43     0  03:43        1.93
  YS02001770           JUNCTION     1.58     1.92     8.41     0  03:02        1.91
  YS02001774           JUNCTION     1.64     1.98     8.40     0  02:59        1.97
  YS02001779           JUNCTION     1.39     1.68     8.37     0  02:29        1.68
  YS02001882           JUNCTION     0.55     1.60     8.32     0  02:48        1.60
  YS02001884           JUNCTION     0.64     1.70     8.32     0  02:51        1.70
  YS02001759           JUNCTION     1.69     2.07     8.43     0  03:43        2.06
  YS02001887           JUNCTION     0.72     1.78     8.32     0  02:43        1.78
  YS02001890           JUNCTION     0.75     1.80     8.31     0  02:38        1.80
  YS02001898           JUNCTION     0.52     1.55     8.29     0  02:47        1.54
  YS02001901           JUNCTION     0.63     1.67     8.28     0  02:40        1.66
  YS02001904           JUNCTION     0.61     1.64     8.27     0  02:48        1.63
  YS02001907           JUNCTION     0.94     1.96     8.25     0  02:38        1.96
  YS02001910           JUNCTION     0.73     1.77     8.28     0  02:39        1.76
  YS02001915           JUNCTION     0.53     1.57     8.29     0  02:39        1.56
  YS02001918           JUNCTION     0.28     1.22     8.29     0  02:39        1.22
  YS02001619           JUNCTION     1.19     1.51     8.44     0  02:21        1.47
  YS02001629           JUNCTION     1.53     1.85     8.40     0  02:24        1.84
  YS02001641           JUNCTION     1.62     1.93     8.37     0  02:29        1.93
  YS02001644           JUNCTION     1.63     1.92     8.35     0  02:26        1.92
  YS02001652           JUNCTION     1.48     1.96     8.56     0  02:34        1.90
  YS02001655           JUNCTION     1.25     1.80     8.65     0  02:34        1.70
  YS02001920           JUNCTION     0.38     1.29     8.30     0  02:39        1.28
  YS02001923           JUNCTION     0.22     1.04     8.30     0  02:39        1.03
  YS02001926           JUNCTION     0.27     0.86     8.30     0  02:39        0.85
  YS02001929           JUNCTION     0.15     0.61     8.30     0  02:39        0.60
  YS02001658           JUNCTION     1.00     1.61     8.75     0  02:34        1.47
  YS02001661           JUNCTION     0.79     1.78     9.19     0  02:34        1.25
  YS02001664           JUNCTION     0.36     0.57     8.50     0  03:59        0.56
  YS02001622           JUNCTION     1.21     1.52     8.42     0  02:21        1.50
  YS02001633           JUNCTION     1.62     1.95     8.40     0  02:28        1.94
  YS02001649           JUNCTION     1.67     2.05     8.44     0  02:31        2.04
  YS02001757           JUNCTION     1.79     2.17     8.43     0  02:58        2.17
  YS02001895           JUNCTION     0.51     1.55     8.30     0  02:42        1.55
  YS02001625           JUNCTION     1.49     1.78     8.38     0  02:21        1.78
  YS02163301           JUNCTION     1.56     1.88     8.40     0  02:28        1.88
  YS02163601           JUNCTION     1.67     1.99     8.39     0  02:27        1.98
  YS02164001           JUNCTION     1.60     1.92     8.38     0  02:27        1.91
  YS02001647           JUNCTION     1.46     1.80     8.41     0  03:50        1.78
  YSB1154              JUNCTION     0.27     0.48     9.54     0  02:21        0.48
  YSB6556              JUNCTION     0.17     0.37     9.54     0  02:21        0.37
  YSB1174              JUNCTION     0.22     0.43     9.54     0  02:21        0.43
  YSB1171              JUNCTION     0.42     0.63     9.54     0  02:21        0.63
  YS02006553           JUNCTION     0.94     1.96     8.24     0  02:46        1.95
  YS02006561           JUNCTION     0.28     0.85     7.51     0  02:50        0.85
  YS02006556           JUNCTION     0.90     1.90     8.21     0  02:43        1.90
  YS02006558           JUNCTION     0.94     1.93     8.20     0  02:42        1.93
  YS02001783           JUNCTION     0.47     1.20     7.34     0  02:44        1.20
  YS02001784           JUNCTION     0.48     1.10     7.16     0  02:43        1.09
  YS02001786           JUNCTION     0.40     0.91     6.94     0  03:13        0.91
  YS02001788           JUNCTION     0.30     0.78     6.76     0  03:14        0.78
  YS02001790           JUNCTION     0.36     0.96     6.60     0  03:14        0.95
  YS02001791           JUNCTION     0.24     0.93     6.40     0  03:14        0.93
  YS02001793           JUNCTION     0.20     1.46     6.29     0  03:15        1.45
  WSC                  OUTFALL      0.13     0.24     0.91     0  02:36        0.24
  3                    OUTFALL      0.00     0.00     7.16     0  00:00        0.00
  4                    OUTFALL      0.00     0.00     7.67     0  00:00        0.00
  5                    OUTFALL      0.00     0.00     4.91     0  00:00        0.00
  JK-storage           STORAGE      0.66     5.46     6.26     0  03:15        5.46
  CC-storage           STORAGE      1.05     1.43     8.43     0  03:03        1.43
  XR-storage           STORAGE      7.41     7.72     5.72     0  02:04        7.72
  
  
  *******************
  Node Inflow Summary
  *******************
  
  -------------------------------------------------------------------------------------------------
                                  Maximum  Maximum                  Lateral       Total        Flow
                                  Lateral    Total  Time of Max      Inflow      Inflow     Balance
                                   Inflow   Inflow   Occurrence      Volume      Volume       Error
  Node                 Type           LPS      LPS  days hr:min    10^6 ltr    10^6 ltr     Percent
  -------------------------------------------------------------------------------------------------
  WS02001211           JUNCTION      7.35    50.33     0  02:34       0.212       0.362       1.679
  WS02001212           JUNCTION      0.00    43.04     0  02:33           0       0.147       0.032
  WS02001213           JUNCTION      0.00    43.22     0  02:32           0       0.157       5.855
  WS02003069           JUNCTION      0.32   362.55     0  02:33     0.00922        2.98       0.186
  WS02003072           JUNCTION      0.00   362.42     0  02:34           0        2.98       0.303
  WS02003073           JUNCTION      1.82   364.19     0  02:35      0.0524        3.02       0.262
  WS02003060           JUNCTION     16.53   405.64     0  02:32       0.476        3.16       0.167
  WS02003066           JUNCTION      0.00   389.10     0  02:32           0        2.68       0.065
  WS02003059           JUNCTION      0.00    68.62     0  01:55           0       0.182      10.527
  WS02003067           JUNCTION      0.00   389.09     0  02:31           0        2.68       0.176
  WS02004401           JUNCTION      0.00   391.61     0  02:26           0         2.8       0.412
  WS02004402           JUNCTION      0.00   391.23     0  02:27           0        2.79       0.415
  WS02004403           JUNCTION      0.00   390.95     0  02:27           0        2.78       0.400
  WS02004404           JUNCTION      0.16   390.98     0  02:27     0.00467        2.77       0.325
  WS02004406           JUNCTION      0.00   390.90     0  02:28           0        2.75       0.806
  WS02004409           JUNCTION      0.00   390.82     0  02:28           0        2.73       0.150
  WS02004410           JUNCTION      0.00   390.18     0  02:29           0        2.72       0.217
  WS02004411           JUNCTION      0.00   389.69     0  02:30           0        2.72       0.260
  WS02004412           JUNCTION      0.00   389.37     0  02:30           0        2.71       0.332
  WS02004413           JUNCTION      0.00   389.18     0  02:31           0         2.7       0.575
  WS02004405           JUNCTION      0.04   390.96     0  02:27      0.0011        2.76       0.502
  WS02006109           JUNCTION      1.23   377.39     0  02:24      0.0354        2.78       0.424
  WS02006110           JUNCTION      0.00   377.36     0  02:24           0        2.77       0.375
  WS02006111           JUNCTION      0.00   385.12     0  02:24           0        2.76       0.041
  WS02006112           JUNCTION     17.70   394.61     0  02:24      0.0741        2.83       0.562
  WS02006113           JUNCTION      0.00   377.36     0  02:24           0        2.76       0.089
  WS02006115           JUNCTION      0.00   393.32     0  02:25           0        2.82       0.339
  WS02006116           JUNCTION      0.00   392.23     0  02:25           0        2.81       0.265
  WS02006230           JUNCTION     10.28    75.76     0  02:22       0.296       0.857       0.590
  WS02006231           JUNCTION      0.00    75.26     0  02:23           0       0.595       0.224
  WS02006232           JUNCTION      0.00    74.74     0  02:23           0         0.6       0.785
  WS02006234           JUNCTION      0.00    74.55     0  02:24           0         0.6       0.058
  WS02006235           JUNCTION      0.00   371.36     0  02:26           0        6.19       0.047
  WS02006238           JUNCTION      0.00    49.26     0  00:00           0      0.0491       2.920
  WS02006240           JUNCTION      0.00    10.79     0  02:30           0      0.0399       0.009
  WS02006242           JUNCTION      0.00    10.74     0  02:28           0      0.0391       0.361
  WS02006243           JUNCTION      0.00    10.76     0  02:26           0      0.0387      -0.447
  WS02006245           JUNCTION      0.00    10.77     0  02:26           0      0.0391       0.888
  WS02006247           JUNCTION      0.00    10.79     0  02:25           0      0.0391       0.136
  WS02006248           JUNCTION      0.00    10.79     0  02:24           0      0.0391       0.042
  WS02006249           JUNCTION      0.00    10.86     0  02:22           0      0.0392       0.169
  WS02006239           JUNCTION      0.00    17.98     0  00:01           0      0.0437       2.533
  WS02006251           JUNCTION      0.08    93.27     0  02:22     0.00222       0.416      -0.005
  WS02006252           JUNCTION      0.00     0.00     0  00:00           0           0       0.000 ltr
  WS02006253           JUNCTION      2.31    93.20     0  02:22     0.00907       0.414       0.045
  WS02006256           JUNCTION      0.00   983.00     0  00:00           0        13.5      -0.009
  WS02004138           JUNCTION      0.00   190.00     0  00:00           0        5.47       0.071
  WS02004139           JUNCTION      0.32   240.54     0  02:36     0.00924        5.83       0.077
  WS02004407           JUNCTION      0.00   390.85     0  02:28           0        2.73       0.072
  WS02006228           JUNCTION      0.00   376.17     0  02:24           0        2.76       0.267
  WS02006229           JUNCTION      0.00   441.30     0  02:23           0        2.87       0.325
  WS02006280           JUNCTION      0.00   441.30     0  02:23           0        2.15       0.003
  WS02006284           JUNCTION      0.10   441.28     0  02:23     0.00275        2.15       0.054
  WS02006287           JUNCTION      0.00   441.16     0  02:22           0        2.15       0.032
  WSF200               JUNCTION      0.00   389.09     0  02:32           0        2.68       0.035
  HS02004901           JUNCTION     21.55    21.55     0  02:18      0.0896      0.0898       1.997
  HS02004881           JUNCTION      8.89    91.09     0  02:22       0.037       0.405       0.015
  HS02004876           JUNCTION     16.09    82.52     0  02:22      0.0714       0.368       0.146
  HS02004870           JUNCTION     16.44    66.60     0  02:22      0.0701       0.297       0.036
  HS02004862           JUNCTION     15.62    50.61     0  02:22      0.0782       0.227       0.076
  HS02004856           JUNCTION     12.31    35.04     0  02:22      0.0527        0.15       0.966
  HS02004852           JUNCTION      0.00    23.03     0  02:22           0      0.0974       0.055
  HS02004848           JUNCTION     34.60    34.60     0  02:24       0.172       0.172       0.026
  HS02004842           JUNCTION      0.00    12.13     0  02:33           0      0.0879      17.365
  HS02004837           JUNCTION     34.13    45.25     0  02:22       0.305        0.38       0.214
  HS02004830           JUNCTION      0.15    45.37     0  02:22     0.00432        0.37       0.334
  HS02004824           JUNCTION     41.63    86.88     0  02:24       0.221       0.589       0.091
  HS02004817           JUNCTION      0.60    87.47     0  02:24      0.0173       0.606       2.828
  HS02004807           JUNCTION     30.38   116.53     0  02:23       0.129       0.718       0.606
  HS02004802           JUNCTION      0.00   116.78     0  02:24           0       0.715       0.554
  HS02004799           JUNCTION     24.26   275.05     0  02:21       0.104        1.24       0.216
  HS02004792           JUNCTION    106.42   251.07     0  02:21        0.47        1.13       0.036
  HS02004788           JUNCTION     35.73   145.41     0  02:21       0.198       0.666       0.059
  HS02004785           JUNCTION      0.15   109.88     0  02:21     0.00432       0.469       0.103
  HS02004777           JUNCTION      0.03   109.91     0  02:20    0.000864       0.469       1.117
  HS02004770           JUNCTION     89.15   110.33     0  02:19       0.383       0.471       0.660
  HS02004480           JUNCTION      0.00   325.30     0  02:21           0        1.45       0.079
  HS02004479           JUNCTION      0.00    50.40     0  02:22           0       0.228       0.322
  HS02004478           JUNCTION      0.00   441.13     0  02:22           0        2.15       0.015
  YS02001745           JUNCTION    299.31   299.31     0  03:01        2.64        2.64       0.426
  YS02001748           JUNCTION      0.04   351.17     0  02:22      0.0013        2.63       0.876
  YS02001751           JUNCTION      0.01   306.83     0  02:52    0.000317        2.61       0.923
  YS02001754           JUNCTION      0.26   306.64     0  02:57     0.00749        2.59       0.968
  YS02001762           JUNCTION      0.00   343.54     0  02:31           0         1.9       1.120
  YS02001765           JUNCTION      0.00   343.27     0  02:31           0         1.9       1.298
  YS02001767           JUNCTION      0.54   342.75     0  02:31      0.0154        1.93       1.873
  YS02001770           JUNCTION    364.84   580.01     0  03:04        2.96        3.63       0.879
  YS02001774           JUNCTION      0.00   580.58     0  03:04           0        2.35       1.065
  YS02001779           JUNCTION      0.01   580.43     0  03:04    0.000144        2.32       0.662
  YS02001882           JUNCTION      0.00    12.00     0  02:22           0      0.0157      15.706
  YS02001884           JUNCTION      0.00    22.37     0  02:22           0      0.0518      12.990
  YS02001759           JUNCTION    350.54   673.97     0  02:31        2.73        3.93       0.586
  YS02001887           JUNCTION    436.86   438.24     0  02:41        3.13        3.16       0.257
  YS02001890           JUNCTION      0.00   438.04     0  02:41           0        3.12       0.288
  YS02001898           JUNCTION      0.00   438.18     0  02:41           0         3.1       0.093
  YS02001901           JUNCTION      0.00   438.53     0  02:40           0         3.1       0.215
  YS02001904           JUNCTION      0.00   438.19     0  02:41           0         3.1       0.195
  YS02001907           JUNCTION      0.00   848.35     0  02:40           0        6.91       0.346
  YS02001910           JUNCTION      0.00   425.31     0  03:07           0        3.82       0.302
  YS02001915           JUNCTION    261.07   425.12     0  03:07        2.21        3.83       0.151
  YS02001918           JUNCTION      0.00   189.86     0  03:08           0        1.61       0.115
  YS02001619           JUNCTION    257.01   257.01     0  02:58         2.2         2.2       0.556
  YS02001629           JUNCTION      0.00   215.32     0  02:26           0        1.66       1.781
  YS02001641           JUNCTION      0.00   450.33     0  02:26           0        4.18       0.508
  YS02001644           JUNCTION    285.93  1344.98     0  03:01        2.55        11.9       0.219
  YS02001652           JUNCTION      0.00   365.43     0  02:31           0        2.31       1.002
  YS02001655           JUNCTION      0.15   364.04     0  02:31     0.00443        2.33       1.085
  YS02001920           JUNCTION      2.87   189.31     0  03:08      0.0827        1.62       0.179
  YS02001923           JUNCTION      0.04   169.69     0  03:07     0.00109        1.54       0.054
  YS02001926           JUNCTION      0.05   147.47     0  03:08      0.0015        1.54       0.201
  YS02001929           JUNCTION    139.19   139.19     0  03:01        1.54        1.54       0.036
  YS02001658           JUNCTION      0.00   414.12     0  02:21           0        2.35       1.081
  YS02001661           JUNCTION      0.00   698.97     0  02:31           0        2.61      -0.570
  YS02001664           JUNCTION    317.98   354.71     0  02:31        2.34        2.61       0.260
  YS02001622           JUNCTION      0.00   257.79     0  02:57           0        2.19       1.481
  YS02001633           JUNCTION    291.56   450.78     0  02:26        2.62        4.24       0.760
  YS02001649           JUNCTION      0.00   956.82     0  02:27           0        6.91       0.540
  YS02001757           JUNCTION      0.00  1836.10     0  02:27           0         7.7       1.206
  YS02001895           JUNCTION      0.00   437.93     0  02:40           0        3.11       0.153
  YS02001625           JUNCTION      0.00   257.28     0  02:58           0        2.16       1.825
  YS02163301           JUNCTION      0.00   216.03     0  02:26           0        1.64       1.491
  YS02163601           JUNCTION      0.11   450.89     0  02:26     0.00317         4.2       0.719
  YS02164001           JUNCTION      0.00   450.81     0  02:26           0        4.18       0.481
  YS02001647           JUNCTION      0.00   694.70     0  03:05           0        6.25       0.455
  YSB1154              JUNCTION     28.41    28.41     0  02:20       0.126       0.127       1.152
  YSB6556              JUNCTION      0.00    28.29     0  02:20           0       0.128       0.987
  YSB1174              JUNCTION     23.20    23.20     0  02:17       0.093      0.0935       1.392
  YSB1171              JUNCTION      0.00    50.47     0  02:21           0       0.227       2.873
  YS02006553           JUNCTION      0.00   787.57     0  03:05           0        6.81       0.224
  YS02006561           JUNCTION      0.00  1139.92     0  02:41           0        9.64       0.008
  YS02006556           JUNCTION      0.00   787.31     0  03:05           0        6.81       0.155
  YS02006558           JUNCTION    380.81  1140.36     0  02:54        2.88        9.67       0.051
  YS02001783           JUNCTION      0.00  1139.82     0  02:41           0        9.64       0.023
  YS02001784           JUNCTION      1.06  1140.89     0  02:41      0.0305        9.67       0.036
  YS02001786           JUNCTION      0.06  1140.68     0  02:41     0.00162        9.67       0.036
  YS02001788           JUNCTION      0.07  1140.73     0  02:41     0.00204        9.66       0.021
  YS02001790           JUNCTION      0.15  1155.66     0  02:53     0.00446        9.67       0.032
  YS02001791           JUNCTION      0.00  1268.06     0  02:49           0        9.66      -0.003
  YS02001793           JUNCTION      0.00  1215.10     0  02:57           0        9.66       0.003
  WSC                  OUTFALL       0.00   364.10     0  02:36           0        3.01       0.000
  3                    OUTFALL       0.00   371.36     0  02:26           0        5.71       0.000
  4                    OUTFALL       0.00    82.41     0  02:22           0       0.376       0.000
  5                    OUTFALL       0.00   240.54     0  02:36           0        5.82       0.000
  JK-storage           STORAGE       0.00  1223.61     0  02:53           0        9.81     -27.517
  CC-storage           STORAGE       0.00  1835.95     0  02:27           0        4.04       1.633
  XR-storage           STORAGE     779.00   779.00     0  03:01        11.9        12.5      -0.000
  
  
  **********************
  Node Surcharge Summary
  **********************
  
  Surcharging occurs when water rises above the top of the highest conduit.
  ---------------------------------------------------------------------
                                               Max. Height   Min. Depth
                                   Hours       Above Crown    Below Rim
  Node                 Type      Surcharged         Meters       Meters
  ---------------------------------------------------------------------
  WS02006256           JUNCTION        6.47          2.050        0.000
  YS02001748           JUNCTION        5.60          0.285        0.905
  YS02001751           JUNCTION        5.73          0.561        0.639
  YS02001754           JUNCTION        5.84          0.780        0.370
  YS02001762           JUNCTION        5.98          1.036        0.114
  YS02001765           JUNCTION        5.96          0.984        0.116
  YS02001767           JUNCTION        5.94          0.937        0.093
  YS02001770           JUNCTION        5.92          0.888        0.032
  YS02001774           JUNCTION        5.97          0.979        0.071
  YS02001779           JUNCTION        5.81          0.680        0.000
  YS02001882           JUNCTION        0.92          0.603        0.227
  YS02001884           JUNCTION        0.96          0.644        0.226
  YS02001759           JUNCTION        6.00          1.069        0.141
  YS02001887           JUNCTION        1.05          0.730        0.220
  YS02001890           JUNCTION        1.08          0.755        0.005
  YS02001898           JUNCTION        0.87          0.522        0.218
  YS02001901           JUNCTION        1.01          0.670        0.200
  YS02001904           JUNCTION        0.98          0.636        0.214
  YS02001907           JUNCTION        1.71          0.950        0.000
  YS02001910           JUNCTION        1.13          0.768        0.332
  YS02001915           JUNCTION        0.90          0.568        0.432
  YS02001918           JUNCTION        0.57          0.223        0.587
  YS02001619           JUNCTION        5.73          0.510        0.100
  YS02001629           JUNCTION        5.73          0.467        0.003
  YS02001641           JUNCTION        5.96          0.935        0.165
  YS02001644           JUNCTION        5.97          0.920        0.000
  YS02001652           JUNCTION        5.89          0.934        0.196
  YS02001655           JUNCTION        5.75          0.803        0.397
  YS02001920           JUNCTION        0.62          0.292        0.848
  YS02001658           JUNCTION        5.63          0.611        0.689
  YS02001661           JUNCTION        0.13          0.714        0.676
  YS02001622           JUNCTION        5.75          0.521        0.099
  YS02001633           JUNCTION        5.95          0.927        0.133
  YS02001649           JUNCTION        5.98          1.050        0.000
  YS02001757           JUNCTION        6.07          1.173        0.037
  YS02001895           JUNCTION        0.89          0.552        0.198
  YS02001625           JUNCTION        5.91          0.780        0.000
  YS02163301           JUNCTION        5.94          0.883        0.147
  YS02163601           JUNCTION        5.98          0.988        0.092
  YS02164001           JUNCTION        5.96          0.920        0.180
  YS02001647           JUNCTION        5.90          0.799        0.101
  YS02006553           JUNCTION        1.79          0.956        0.234
  YS02006561           JUNCTION        0.49          0.054        1.096
  YS02006556           JUNCTION        1.36          0.859        0.491
  YS02006558           JUNCTION        1.32          0.831        0.569
  YS02001783           JUNCTION        1.07          0.403        1.197
  YS02001784           JUNCTION        1.02          0.297        1.193
  YS02001786           JUNCTION        0.79          0.111        1.319
  YS02001790           JUNCTION        0.22          0.157        1.000
  YS02001791           JUNCTION        0.21          0.133        1.787
  YS02001793           JUNCTION        0.36          0.459        2.141
  
  
  *********************
  Node Flooding Summary
  *********************
  
  Flooding refers to all water that overflows a node, whether it ponds or not.
  --------------------------------------------------------------------------
                                                             Total   Maximum
                                 Maximum   Time of Max       Flood    Ponded
                        Hours       Rate    Occurrence      Volume     Depth
  Node                 Flooded       LPS   days hr:min    10^6 ltr    Meters
  --------------------------------------------------------------------------
  WS02006256              5.15    978.40      0  00:00       7.533     0.000
  YS02001779              3.04    580.35      0  03:04       2.301     0.000
  YS02001907              0.41     89.53      0  02:40       0.085     0.000
  YS02001644              5.55   1344.90      0  03:01      10.730     0.000
  YS02001649              0.01     18.42      0  02:34       0.000     0.000
  YS02001625              1.22    176.31      0  03:00       0.460     0.000
  XR-storage              5.92    588.96      0  03:01       6.055     0.000
  
  
  **********************
  Storage Volume Summary
  **********************
  
  --------------------------------------------------------------------------------------------------
                         Average     Avg  Evap Exfil       Maximum     Max    Time of Max    Maximum
                          Volume    Pcnt  Pcnt  Pcnt        Volume    Pcnt     Occurrence    Outflow
  Storage Unit           1000 m3    Full  Loss  Loss       1000 m3    Full    days hr:min        LPS
  --------------------------------------------------------------------------------------------------
  JK-storage               0.033      11     0     0         0.274      94       0  03:15     983.00
  CC-storage               2.929      19     0     0         3.974      25       0  03:03     108.45
  XR-storage               0.889      96     0     0         0.926     100       0  02:04     190.00
  
  
  ***********************
  Outfall Loading Summary
  ***********************
  
  ---------------------------------------------------------------------------------------------------------------------------------
                         Flow       Avg       Max       Total         Total         Total         Total         Total         Total
                         Freq      Flow      Flow      Volume           COD            SS            TN            TP         NH4-N
  Outfall Node           Pcnt       LPS       LPS    10^6 ltr            kg            kg            kg            kg            kg
  ---------------------------------------------------------------------------------------------------------------------------------
  WSC                   99.97    128.39    364.10       3.014       386.266       688.591        20.896         2.393        12.446
  3                     99.98    228.40    371.36       5.712       172.703       331.137         3.375         0.246         1.654
  4                     99.97     17.69     82.41       0.376        41.254        80.774         0.941         0.072         0.471
  5                     99.99    204.32    240.54       5.825       865.633      1423.760        72.981         8.961        45.141
  ---------------------------------------------------------------------------------------------------------------------------------
  System                99.98    578.81   1037.63      14.928      1465.857      2524.262        98.193        11.673        59.712
  
  
  ********************
  Link Flow Summary
  ********************
  
  -----------------------------------------------------------------------------
                                 Maximum  Time of Max   Maximum    Max/    Max/
                                  |Flow|   Occurrence   |Veloc|    Full    Full
  Link                 Type          LPS  days hr:min     m/sec    Flow   Depth
  -----------------------------------------------------------------------------
  WS02003066WSF200     CONDUIT    389.09     0  02:32      2.65    0.07    0.19
  WS02006287WS02006284 CONDUIT    441.18     0  02:23      2.08    0.20    0.31
  WS02006284WS02006280 CONDUIT    441.30     0  02:23      2.32    0.18    0.29
  WS02006280WS02006229 CONDUIT    441.30     0  02:23      3.75    0.09    0.21
  WS02006229WS02006228 CONDUIT    376.17     0  02:24      0.76    1.25    0.97
  WS02006256WS02006235 CONDUIT    287.06     0  02:26      4.46    3.04    0.89
  WS02006253WS02006251 CONDUIT     93.19     0  02:22      0.79    0.28    0.34
  WS02006252WS02006251 CONDUIT      0.00     0  00:00      0.00    0.00    0.00
  WS02006251WS02006249 CONDUIT     10.86     0  02:22      0.33    0.03    0.14
  WS02006249WS02006248 CONDUIT     10.79     0  02:24      0.39    0.06    0.12
  WS02006248WS02006247 CONDUIT     10.79     0  02:25      0.41    0.02    0.12
  WS02006247WS02006245 CONDUIT     10.77     0  02:26      0.35    0.09    0.13
  WS02006245WS02006243 CONDUIT     10.76     0  02:26      0.47    0.03    0.11
  WS02006243WS02006242 CONDUIT     10.74     0  02:28      0.33    0.02    0.14
  WS02006242WS02006240 CONDUIT     10.79     0  02:30      0.23    0.04    0.18
  WS02006240WS02006239 CONDUIT     11.03     0  02:31      0.23    0.03    0.19
  WS02006239WS02006238 CONDUIT     17.98     0  00:01      0.45    0.06    0.30
  WS02006238WS02006235 CONDUIT     49.26     0  00:00      1.17    0.11    0.35
  WS02006235WS02006234 CONDUIT     74.49     0  02:25      0.64    0.79    0.34
  WS02006234WS02006232 CONDUIT     74.55     0  02:24      0.82    0.15    0.49
  WS02006232WS02006231 CONDUIT     74.74     0  02:23      0.36    0.16    0.53
  WS02006231WS02006230 CONDUIT     75.26     0  02:23      0.52    1.14    0.48
  WS02006230WS02006229 CONDUIT     65.48     0  02:22      0.40    1.46    1.00
  WS02006228WS02006109 CONDUIT    376.16     0  02:24      0.75    1.64    0.99
  WS02006116WS02004401 CONDUIT    391.61     0  02:26      0.64    0.54    0.72
  WS02006115WS02006116 CONDUIT    392.23     0  02:25      0.83    0.50    0.64
  WS02006113WS02006111 CONDUIT    385.12     0  02:24      2.18    0.46    0.38
  WS02006112WS02006115 CONDUIT    393.32     0  02:25      0.61    0.23    0.77
  WS02006111WS02006112 CONDUIT    377.91     0  02:24      1.11    0.18    0.64
  WS02006110WS02006113 CONDUIT    377.36     0  02:24      0.96    0.34    0.73
  WS02006109WS02006110 CONDUIT    377.36     0  02:24      0.78    0.73    0.93
  WS02004411WS02004412 CONDUIT    389.37     0  02:30      0.86    0.55    0.60
  WS02004401WS02004402 CONDUIT    391.23     0  02:27      0.62    0.47    0.75
  WS02004413WS02003067 CONDUIT    389.09     0  02:31      0.93    0.17    0.52
  WS02004412WS02004413 CONDUIT    389.18     0  02:31      0.83    0.26    0.69
  WS02004410WS02004411 CONDUIT    389.69     0  02:30      0.82    0.53    0.58
  WS02004409WS02004410 CONDUIT    390.18     0  02:29      0.85    0.50    0.57
  WS02004407WS02004409 CONDUIT    390.82     0  02:28      1.32    0.14    0.40
  WS02004406WS02004407 CONDUIT    390.85     0  02:28      0.86    0.17    0.56
  WS02004405WS02004406 CONDUIT    390.90     0  02:28      0.54    0.77    0.87
  WS02004404WS02004405 CONDUIT    390.92     0  02:27      0.54    3.83    0.86
  WS02004403WS02004404 CONDUIT    390.82     0  02:27      0.56    0.28    0.83
  WS02004402WS02004403 CONDUIT    390.95     0  02:27      0.60    0.56    0.78
  WS02004139WS02001211 CONDUIT     50.22     0  02:36      0.46    0.06    0.15
  WS02004138WS02004139 CONDUIT    191.49     0  00:01      2.95    0.04    0.14
  WS02003067WS02003066 CONDUIT    389.10     0  02:32      1.01    0.12    0.37
  WS02001213WS02003059 CONDUIT     43.22     0  02:32      0.17    0.07    0.50
  WS02001212WS02001213 CONDUIT     43.04     0  02:33      0.65    0.07    0.14
  WS02001211WS02001212 CONDUIT     42.99     0  02:34      0.36    0.03    0.21
  WS02003072WS02003073 CONDUIT    362.37     0  02:35      1.24    0.78    0.31
  WS02003069WS02003072 CONDUIT    362.42     0  02:34      1.20    0.17    0.31
  WS02003060WS02003069 CONDUIT    362.23     0  02:33      1.48    0.14    0.27
  WS02003059WS02003060 CONDUIT     68.62     0  01:55      0.56    0.04    0.43
  HS02004901HS02004770 CONDUIT     21.26     0  02:20      0.07    0.08    0.43
  HS02004876HS02004881 CONDUIT     82.52     0  02:22      0.98    0.88    0.12
  HS02004870HS02004876 CONDUIT     66.58     0  02:22      0.67    0.04    0.14
  HS02004842HS02004848 CONDUIT     12.13     0  02:33      0.06    0.01    0.31
  HS02004837HS02004842 CONDUIT     12.41     0  02:33      0.42    0.01    0.32
  HS02004830HS02004837 CONDUIT     45.22     0  02:22      0.58    0.05    0.11
  HS02004824HS02004830 CONDUIT     45.36     0  02:23      0.60    0.06    0.11
  HS02004817HS02004824 CONDUIT     86.87     0  02:24      0.26    0.04    0.49
  HS02004770HS02004777 CONDUIT    109.88     0  02:20      0.36    0.20    0.44
  HS02004799HS02004480 CONDUIT    274.95     0  02:21      0.85    0.35    0.46
  HS02004792HS02004799 CONDUIT    251.01     0  02:21      0.97    0.15    0.37
  HS02004788HS02004792 CONDUIT    145.37     0  02:21      1.08    0.10    0.19
  HS02004785HS02004788 CONDUIT    109.85     0  02:21      0.72    0.83    0.22
  HS02004777HS02004785 CONDUIT    109.73     0  02:21      0.43    0.14    0.36
  HS02004480HS02004478 CONDUIT    325.30     0  02:21      1.30    1.37    0.36
  HS02004479HS02004480 CONDUIT     50.47     0  02:22      0.29    0.05    0.44
  HS02004862HS02004870 CONDUIT     50.60     0  02:23      0.67    0.05    0.11
  HS02004848HS02004852 CONDUIT     23.03     0  02:22      0.45    0.03    0.07
  HS02004856HS02004862 CONDUIT     35.01     0  02:22      0.50    0.03    0.10
  HS02004852HS02004856 CONDUIT     23.06     0  02:23      0.25    0.03    0.13
  HS02004802HS02004478 CONDUIT    117.15     0  02:25      0.45    0.10    0.38
  HS02004478WS02006287 CONDUIT    441.16     0  02:22      1.79    0.12    0.27
  HS02004817HS02004807 CONDUIT     87.98     0  02:26      0.20    0.05    0.65
  HS02004807HS02004802 CONDUIT    116.78     0  02:24      0.39    0.22    0.43
  YS02001759YS02001757 CONDUIT    673.21     0  02:32      0.86    0.48    1.00
  YS02001762YS02001759 CONDUIT    343.19     0  02:31      0.44    0.40    1.00
  YS02001765YS02001762 CONDUIT    343.54     0  02:31      0.44    0.32    1.00
  YS02001770YS02001767 CONDUIT    342.22     0  02:31      0.44    1.36    1.00
  YS02001774YS02001770 CONDUIT    580.58     0  03:04      0.74    0.37    1.00
  YS02001779YS02001774 CONDUIT    580.43     0  03:04      0.74    0.29    1.00
  YS02001649YS02001757 CONDUIT    956.80     0  02:27      1.22    0.58    1.00
  YS02001767YS02001765 CONDUIT    343.27     0  02:31      0.44    0.43    1.00
  YS02006561YS02001783 CONDUIT   1139.82     0  02:41      2.27    0.59    1.00
  YS02001783YS02001784 CONDUIT   1139.83     0  02:41      2.27    1.57    1.00
  YS02001784YS02001785 CONDUIT   1140.62     0  02:41      2.27    2.65    1.00
  YS02001788YS02001790 CONDUIT   1155.51     0  02:53      2.70    0.85    0.99
  YS02001790YS02001791 CONDUIT   1268.06     0  02:49      3.42    1.38    1.00
  YS02001791YS02001793 CONDUIT   1215.10     0  02:57      6.74    0.52    1.00
  YS02001910YS02001907 CONDUIT    425.42     0  03:08      0.54    0.24    1.00
  YS02001786YS02001788 CONDUIT   1140.66     0  02:41      2.45    2.20    0.99
  YS02001915YS02001910 CONDUIT    425.31     0  03:07      0.56    0.21    1.00
  YS02001918YS02001915 CONDUIT    206.77     0  03:19      0.44    0.11    1.00
  YS02001923YS02001920 CONDUIT    186.44     0  03:08      0.70    0.08    1.00
  YS02001926YS02001923 CONDUIT    169.65     0  03:07      0.83    0.24    0.84
  YS02001929YS02001926 CONDUIT    147.42     0  03:08      0.89    0.07    0.73
  YS02001920YS02001918 CONDUIT    189.86     0  03:08      0.69    0.18    1.00
  YS02001629YS02163301 CONDUIT    216.03     0  02:26      0.28    0.27    1.00
  YS02001619YS02001622 CONDUIT    257.79     0  02:57      0.61    0.38    1.00
  YS02001622YS02001625 CONDUIT    257.28     0  02:58      0.33    0.14    1.00
  YS02001625YS02001629 CONDUIT    215.32     0  02:26      0.27    0.10    1.00
  YS02163301YS02001633 CONDUIT    216.22     0  02:26      0.28    0.20    1.00
  YS02163601YS02164001 CONDUIT    450.81     0  02:26      0.57    0.40    1.00
  YS02164001YS02001641 CONDUIT    450.33     0  02:26      0.57    0.61    1.00
  YS02001641YS02001644 CONDUIT    450.52     0  02:26      0.57    1.46    1.00
  YS02001647YS02001649 CONDUIT    694.70     0  03:05      0.88    0.37    1.00
  YS02006553YS02006556 CONDUIT    787.31     0  03:05      1.00    0.67    1.00
  YS02006556YS02006558 CONDUIT    787.70     0  03:05      1.00    0.62    1.00
  YSB6556YSB1171       CONDUIT     28.30     0  02:22      0.10    0.03    0.71
  YS02001907YS02006553 CONDUIT    787.57     0  03:05      0.88    0.93    1.00
  YS02006558YS02006561 CONDUIT   1139.92     0  02:41      4.03    2.52    1.00
  YS02001633YS02163601 CONDUIT    450.78     0  02:26      0.57    0.47    1.00
  YS02001644YS02001647 CONDUIT    695.49     0  03:05      0.89    0.41    1.00
  YS02001745YS02001748 CONDUIT    351.12     0  02:22      1.49    0.14    0.96
  YS02001748YS02001751 CONDUIT    306.82     0  02:52      1.05    0.15    1.00
  YS02001751YS02001754 CONDUIT    306.38     0  02:57      0.88    0.15    1.00
  YS02001754YS02001757 CONDUIT    306.38     0  02:52      0.39    0.12    1.00
  YS02001882YS02001884 CONDUIT     12.09     0  04:00      0.12    0.01    1.00
  YS02001884YS02001887 CONDUIT     22.37     0  02:22      0.08    0.03    1.00
  YS02001890YS02001895 CONDUIT    437.93     0  02:40      0.56    0.20    1.00
  YS02001895YS02001898 CONDUIT    438.18     0  02:41      0.59    0.76    1.00
  YS02001898YS02001901 CONDUIT    438.53     0  02:40      0.56    0.28    1.00
  YS02001901YS02001904 CONDUIT    438.19     0  02:41      0.56    0.68    1.00
  YS02001904YS02001907 CONDUIT    437.96     0  02:41      0.56    0.15    1.00
  YS02001887YS02001890 CONDUIT    438.04     0  02:41      0.56    0.75    1.00
  YS02001652YS02001649 CONDUIT    367.69     0  02:31      0.58    0.18    1.00
  YS02001655YS02001652 CONDUIT    365.43     0  02:31      0.94    0.18    1.00
  YS02001658YS02001655 CONDUIT    363.89     0  02:31      1.20    0.15    1.00
  YS02001661YS02001658 CONDUIT    414.12     0  02:21      1.58    0.16    1.00
  YS02001664YS02001661 CONDUIT    698.97     0  02:31      1.63    0.22    0.76
  YSB1154YSB6556       CONDUIT     28.29     0  02:20      0.16    0.05    0.60
  YSB1174YSB1171       CONDUIT     22.69     0  02:18      0.08    0.03    0.72
  YSB1171HS02004479    CONDUIT     50.40     0  02:22      0.54    0.03    0.57
  HS02004881HS02006253 CONDUIT     91.09     0  02:22      2.31    0.02    0.06
  YS02001793JiankangQianchi CONDUIT   1223.61     0  02:53     20.75    0.10    1.00
  YS02001757CaochengTiaoxuchi CONDUIT   1835.95     0  02:27      2.58    0.81    1.00
  WSF200WS02003060     CONDUIT    389.11     0  02:32      2.00    0.09    0.23
  1                    CONDUIT    364.10     0  02:36      2.51    0.13    0.24
  CC-Pump-1            PUMP         0.00     0  00:00              0.00
  CC-Pump-2            PUMP         0.00     0  00:00              0.00
  JK-Pump-1            PUMP       300.00     0  00:00              1.00
  JK-Pump-2            PUMP       683.00     0  00:00              1.00
  XR-Pump-1            PUMP         0.00     0  00:00              0.00
  XR-Pump-2            PUMP         0.00     0  00:00              0.00
  XR-Pump-3            PUMP        95.00     0  00:00              1.00
  XR-Pump-4            PUMP        95.00     0  00:00              1.00
  3                    WEIR        82.41     0  02:22                      0.08
  5                    WEIR       371.36     0  02:26                      0.23
  6                    WEIR       240.54     0  02:36                      0.17
  
  
  ***************************
  Flow Classification Summary
  ***************************
  
  -------------------------------------------------------------------------------------
                      Adjusted    ---------- Fraction of Time in Flow Class ---------- 
                       /Actual         Up    Down  Sub   Sup   Up    Down  Norm  Inlet 
  Conduit               Length    Dry  Dry   Dry   Crit  Crit  Crit  Crit  Ltd   Ctrl  
  -------------------------------------------------------------------------------------
  WS02003066WSF200        1.00   0.13  0.00  0.00  0.00  0.87  0.00  0.00  0.77  0.00
  WS02006287WS02006284    1.00   0.05  0.03  0.00  0.52  0.41  0.00  0.00  0.65  0.00
  WS02006284WS02006280    1.00   0.06  0.00  0.00  0.00  0.00  0.00  0.94  0.00  0.00
  WS02006280WS02006229    1.00   0.06  0.00  0.00  0.00  0.00  0.00  0.94  0.00  0.00
  WS02006229WS02006228    1.00   0.00  0.00  0.00  0.99  0.00  0.00  0.01  0.00  0.00
  WS02006256WS02006235    1.00   0.00  0.00  0.00  0.09  0.91  0.00  0.00  0.01  0.00
  WS02006253WS02006251    1.00   0.02  0.03  0.00  0.00  0.00  0.95  0.00  0.00  0.00
  WS02006252WS02006251    1.00   1.00  0.00  0.00  0.00  0.00  0.00  0.00  0.00  0.00
  WS02006251WS02006249    1.00   0.00  0.00  0.00  1.00  0.00  0.00  0.00  0.98  0.00
  WS02006249WS02006248    1.00   0.00  0.07  0.00  0.00  0.00  0.93  0.00  0.00  0.00
  WS02006248WS02006247    1.00   0.07  0.00  0.00  0.79  0.00  0.00  0.14  0.32  0.00
  WS02006247WS02006245    1.00   0.07  0.00  0.00  0.66  0.00  0.00  0.27  0.00  0.00
  WS02006245WS02006243    1.00   0.07  0.00  0.00  0.31  0.00  0.00  0.62  0.00  0.00
  WS02006243WS02006242    1.00   0.08  0.00  0.00  0.88  0.00  0.00  0.04  0.78  0.00
  WS02006242WS02006240    1.00   0.00  0.09  0.00  0.90  0.00  0.01  0.00  0.21  0.00
  WS02006240WS02006239    1.00   0.00  0.00  0.00  0.90  0.00  0.00  0.10  0.01  0.00
  WS02006239WS02006238    1.00   0.00  0.01  0.00  0.99  0.00  0.00  0.00  0.19  0.00
  WS02006238WS02006235    1.00   0.00  0.00  0.00  1.00  0.00  0.00  0.00  0.00  0.00
  WS02006235WS02006234    1.00   0.08  0.00  0.00  0.89  0.00  0.02  0.01  0.00  0.00
  WS02006234WS02006232    1.00   0.00  0.00  0.00  1.00  0.00  0.00  0.00  0.17  0.00
  WS02006232WS02006231    1.00   0.00  0.00  0.00  0.99  0.00  0.00  0.00  0.00  0.00
  WS02006231WS02006230    1.00   0.00  0.00  0.00  0.29  0.00  0.71  0.00  0.00  0.00
  WS02006230WS02006229    1.00   0.00  0.00  0.00  0.98  0.00  0.00  0.02  0.02  0.00
  WS02006228WS02006109    1.00   0.00  0.00  0.00  1.00  0.00  0.00  0.00  0.00  0.00
  WS02006116WS02004401    1.00   0.05  0.00  0.00  0.95  0.00  0.00  0.00  0.00  0.00
  WS02006115WS02006116    1.00   0.05  0.00  0.00  0.91  0.00  0.00  0.05  0.00  0.00
  WS02006113WS02006111    1.00   0.03  0.00  0.00  0.01  0.96  0.00  0.00  0.09  0.00
  WS02006112WS02006115    1.00   0.03  0.02  0.00  0.95  0.00  0.00  0.00  0.00  0.00
  WS02006111WS02006112    1.00   0.03  0.00  0.00  0.96  0.00  0.00  0.00  0.93  0.00
  WS02006110WS02006113    1.00   0.01  0.02  0.00  0.97  0.00  0.00  0.00  0.00  0.00
  WS02006109WS02006110    1.00   0.00  0.01  0.00  0.99  0.00  0.01  0.00  0.00  0.00
  WS02004411WS02004412    1.00   0.11  0.00  0.00  0.89  0.00  0.00  0.00  0.00  0.00
  WS02004401WS02004402    1.00   0.05  0.00  0.00  0.95  0.00  0.00  0.00  0.04  0.00
  WS02004413WS02003067    1.00   0.11  0.01  0.00  0.00  0.00  0.88  0.00  0.00  0.00
  WS02004412WS02004413    1.00   0.11  0.00  0.00  0.89  0.00  0.00  0.00  0.00  0.00
  WS02004410WS02004411    1.00   0.10  0.00  0.00  0.90  0.00  0.00  0.00  0.00  0.00
  WS02004409WS02004410    1.00   0.10  0.00  0.00  0.90  0.00  0.00  0.00  0.00  0.00
  WS02004407WS02004409    1.00   0.10  0.00  0.00  0.89  0.01  0.00  0.00  0.79  0.00
  WS02004406WS02004407    1.00   0.00  0.10  0.00  0.90  0.00  0.00  0.00  0.00  0.00
  WS02004405WS02004406    1.00   0.00  0.00  0.00  1.00  0.00  0.00  0.00  0.04  0.00
  WS02004404WS02004405    1.00   0.00  0.00  0.00  1.00  0.00  0.00  0.00  0.00  0.00
  WS02004403WS02004404    1.00   0.00  0.05  0.00  0.95  0.00  0.00  0.00  0.04  0.00
  WS02004402WS02004403    1.00   0.05  0.00  0.00  0.95  0.00  0.00  0.00  0.00  0.00
  WS02004139WS02001211    1.00   0.00  0.00  0.00  1.00  0.00  0.00  0.00  0.00  0.00
  WS02004138WS02004139    1.00   0.00  0.00  0.00  0.00  0.00  0.00  1.00  0.00  0.00
  WS02003067WS02003066    1.00   0.12  0.01  0.00  0.87  0.00  0.00  0.00  0.00  0.00
  WS02001213WS02003059    1.00   0.00  0.00  0.00  0.99  0.00  0.00  0.00  0.00  0.00
  WS02001212WS02001213    1.00   0.01  0.58  0.00  0.41  0.00  0.00  0.00  0.49  0.00
  WS02001211WS02001212    1.00   0.00  0.01  0.00  0.99  0.00  0.00  0.00  0.48  0.00
  WS02003072WS02003073    1.00   0.00  0.00  0.00  0.00  0.00  0.00  1.00  0.00  0.00
  WS02003069WS02003072    1.00   0.00  0.00  0.00  1.00  0.00  0.00  0.00  0.98  0.00
  WS02003060WS02003069    1.00   0.00  0.00  0.00  0.98  0.02  0.00  0.00  0.83  0.00
  WS02003059WS02003060    1.00   0.00  0.00  0.00  1.00  0.00  0.00  0.00  0.08  0.00
  HS02004901HS02004770    1.00   0.06  0.00  0.00  0.94  0.00  0.00  0.00  0.00  0.00
  HS02004876HS02004881    1.00   0.01  0.00  0.00  0.85  0.14  0.00  0.00  0.00  0.00
  HS02004870HS02004876    1.00   0.00  0.00  0.00  0.99  0.00  0.00  0.00  0.95  0.00
  HS02004842HS02004848    1.00   0.00  0.06  0.00  0.94  0.00  0.00  0.00  0.58  0.00
  HS02004837HS02004842    1.00   0.00  0.00  0.00  1.00  0.00  0.00  0.00  0.11  0.00
  HS02004830HS02004837    1.00   0.00  0.00  0.00  1.00  0.00  0.00  0.00  0.99  0.00
  HS02004824HS02004830    1.00   0.00  0.00  0.00  1.00  0.00  0.00  0.00  0.00  0.00
  HS02004817HS02004824    1.00   0.00  0.00  0.00  1.00  0.00  0.00  0.00  1.00  0.00
  HS02004770HS02004777    1.00   0.00  0.06  0.00  0.94  0.00  0.00  0.00  0.03  0.00
  HS02004799HS02004480    1.00   0.00  0.02  0.00  0.93  0.00  0.05  0.00  0.00  0.00
  HS02004792HS02004799    1.00   0.00  0.00  0.00  0.99  0.01  0.00  0.00  0.98  0.00
  HS02004788HS02004792    1.00   0.00  0.00  0.00  0.99  0.01  0.00  0.00  0.98  0.00
  HS02004785HS02004788    1.00   0.00  0.00  0.00  1.00  0.00  0.00  0.00  0.00  0.00
  HS02004777HS02004785    1.00   0.00  0.00  0.00  1.00  0.00  0.00  0.00  0.12  0.00
  HS02004480HS02004478    1.00   0.06  0.00  0.00  0.59  0.00  0.00  0.36  0.00  0.00
  HS02004479HS02004480    1.00   0.02  0.00  0.00  0.98  0.00  0.00  0.00  0.11  0.00
  HS02004862HS02004870    1.00   0.00  0.00  0.00  1.00  0.00  0.00  0.00  0.04  0.00
  HS02004848HS02004852    1.00   0.06  0.00  0.00  0.94  0.00  0.00  0.00  0.72  0.00
  HS02004856HS02004862    1.00   0.00  0.08  0.00  0.92  0.00  0.00  0.00  0.83  0.00
  HS02004852HS02004856    1.00   0.06  0.01  0.00  0.94  0.00  0.00  0.00  0.82  0.00
  HS02004802HS02004478    1.00   0.06  0.00  0.00  0.94  0.00  0.00  0.00  0.02  0.00
  HS02004478WS02006287    1.00   0.07  0.00  0.00  0.66  0.26  0.00  0.00  0.67  0.00
  HS02004817HS02004807    1.00   0.00  0.06  0.00  0.94  0.00  0.00  0.00  0.01  0.00
  HS02004807HS02004802    1.00   0.06  0.00  0.00  0.93  0.00  0.00  0.01  0.00  0.00
  YS02001759YS02001757    1.00   0.00  0.00  0.00  1.00  0.00  0.00  0.00  0.15  0.00
  YS02001762YS02001759    1.00   0.00  0.00  0.00  1.00  0.00  0.00  0.00  0.03  0.00
  YS02001765YS02001762    1.00   0.00  0.00  0.00  1.00  0.00  0.00  0.00  0.14  0.00
  YS02001770YS02001767    1.00   0.00  0.00  0.00  1.00  0.00  0.00  0.00  0.00  0.00
  YS02001774YS02001770    1.00   0.00  0.06  0.00  0.94  0.00  0.00  0.00  0.03  0.00
  YS02001779YS02001774    1.00   0.00  0.00  0.00  1.00  0.00  0.00  0.00  0.18  0.00
  YS02001649YS02001757    1.00   0.00  0.00  0.00  1.00  0.00  0.00  0.00  0.16  0.00
  YS02001767YS02001765    1.00   0.00  0.00  0.00  1.00  0.00  0.00  0.00  0.00  0.00
  YS02006561YS02001783    1.00   0.09  0.00  0.00  0.24  0.68  0.00  0.00  0.49  0.00
  YS02001783YS02001784    1.00   0.00  0.09  0.00  0.91  0.00  0.00  0.00  0.01  0.00
  YS02001784YS02001785    1.00   0.00  0.00  0.00  1.00  0.00  0.00  0.00  0.17  0.00
  YS02001788YS02001790    1.00   0.00  0.00  0.00  0.18  0.82  0.00  0.00  0.48  0.00
  YS02001790YS02001791    1.00   0.00  0.00  0.00  0.05  0.95  0.00  0.00  0.63  0.00
  YS02001791YS02001793    1.00   0.00  0.00  0.00  0.06  0.94  0.00  0.00  0.01  0.00
  YS02001910YS02001907    1.00   0.00  0.00  0.00  0.98  0.00  0.00  0.01  0.12  0.00
  YS02001786YS02001788    1.00   0.00  0.00  0.00  0.27  0.73  0.00  0.00  0.00  0.00
  YS02001915YS02001910    1.00   0.00  0.00  0.00  0.99  0.01  0.00  0.00  0.16  0.00
  YS02001918YS02001915    1.00   0.00  0.00  0.00  0.99  0.01  0.00  0.00  0.58  0.00
  YS02001923YS02001920    1.00   0.00  0.00  0.00  1.00  0.00  0.00  0.00  0.84  0.00
  YS02001926YS02001923    1.00   0.00  0.03  0.00  0.16  0.00  0.81  0.00  0.00  0.00
  YS02001929YS02001926    1.00   0.00  0.06  0.00  0.94  0.00  0.00  0.00  0.78  0.00
  YS02001920YS02001918    1.00   0.00  0.00  0.00  1.00  0.00  0.00  0.00  0.00  0.00
  YS02001629YS02163301    1.00   0.07  0.01  0.00  0.93  0.00  0.00  0.00  0.00  0.00
  YS02001619YS02001622    1.00   0.06  0.00  0.00  0.94  0.00  0.00  0.00  0.00  0.00
  YS02001622YS02001625    1.00   0.06  0.00  0.00  0.94  0.00  0.00  0.00  0.05  0.00
  YS02001625YS02001629    1.00   0.06  0.03  0.00  0.88  0.00  0.03  0.00  0.00  0.00
  YS02163301YS02001633    1.00   0.00  0.07  0.00  0.93  0.00  0.00  0.00  0.00  0.00
  YS02163601YS02164001    1.00   0.00  0.04  0.00  0.96  0.00  0.00  0.00  0.00  0.00
  YS02164001YS02001641    1.00   0.01  0.03  0.00  0.96  0.00  0.00  0.00  0.06  0.00
  YS02001641YS02001644    1.00   0.00  0.00  0.00  1.00  0.00  0.00  0.00  0.00  0.00
  YS02001647YS02001649    1.00   0.00  0.08  0.00  0.92  0.00  0.00  0.00  0.01  0.00
  YS02006553YS02006556    1.00   0.01  0.00  0.00  0.99  0.00  0.00  0.00  0.03  0.00
  YS02006556YS02006558    1.00   0.00  0.00  0.00  1.00  0.00  0.00  0.00  0.00  0.00
  YSB6556YSB1171          1.00   0.02  0.04  0.00  0.94  0.00  0.00  0.00  0.00  0.00
  YS02001907YS02006553    1.00   0.00  0.01  0.00  0.99  0.00  0.00  0.00  0.00  0.00
  YS02006558YS02006561    1.00   0.09  0.00  0.00  0.13  0.78  0.00  0.00  0.52  0.00
  YS02001633YS02163601    1.00   0.00  0.01  0.00  0.99  0.00  0.00  0.00  0.15  0.00
  YS02001644YS02001647    1.00   0.00  0.08  0.00  0.92  0.00  0.00  0.00  0.00  0.00
  YS02001745YS02001748    1.00   0.00  0.00  0.00  0.84  0.01  0.00  0.15  0.03  0.00
  YS02001748YS02001751    1.00   0.00  0.00  0.00  0.94  0.06  0.00  0.00  0.15  0.00
  YS02001751YS02001754    1.00   0.00  0.00  0.00  0.90  0.00  0.00  0.10  0.02  0.00
  YS02001754YS02001757    1.00   0.00  0.00  0.00  1.00  0.00  0.00  0.00  0.18  0.00
  YS02001882YS02001884    1.00   0.07  0.00  0.00  0.93  0.00  0.00  0.00  0.00  0.00
  YS02001884YS02001887    1.00   0.03  0.02  0.00  0.95  0.00  0.00  0.00  0.00  0.00
  YS02001890YS02001895    1.00   0.00  0.07  0.00  0.93  0.00  0.00  0.00  0.00  0.00
  YS02001895YS02001898    1.00   0.07  0.00  0.00  0.91  0.00  0.02  0.00  0.00  0.00
  YS02001898YS02001901    1.00   0.07  0.00  0.00  0.93  0.00  0.00  0.00  0.01  0.00
  YS02001901YS02001904    1.00   0.07  0.00  0.00  0.93  0.00  0.00  0.00  0.00  0.00
  YS02001904YS02001907    1.00   0.00  0.07  0.00  0.93  0.00  0.00  0.00  0.00  0.00
  YS02001887YS02001890    1.00   0.00  0.00  0.00  0.98  0.00  0.01  0.00  0.00  0.00
  YS02001652YS02001649    1.00   0.00  0.00  0.00  0.99  0.00  0.00  0.00  0.16  0.00
  YS02001655YS02001652    1.00   0.00  0.00  0.00  0.90  0.00  0.00  0.09  0.02  0.00
  YS02001658YS02001655    1.00   0.00  0.06  0.00  0.88  0.05  0.00  0.00  0.09  0.00
  YS02001661YS02001658    1.00   0.06  0.00  0.00  0.84  0.09  0.00  0.00  0.05  0.00
  YS02001664YS02001661    1.00   0.06  0.00  0.00  0.87  0.08  0.00  0.00  0.17  0.00
  YSB1154YSB6556          1.00   0.06  0.00  0.00  0.94  0.00  0.00  0.00  0.02  0.00
  YSB1174YSB1171          1.00   0.02  0.02  0.00  0.96  0.00  0.00  0.00  0.00  0.00
  YSB1171HS02004479       1.00   0.02  0.00  0.00  0.97  0.00  0.00  0.01  0.10  0.00
  HS02004881HS02006253    1.00   0.03  0.00  0.00  0.00  0.00  0.00  0.97  0.00  0.00
  YS02001793JiankangQianchi    1.00   0.00  0.00  0.00  0.13  0.86  0.00  0.00  0.08  0.00
  YS02001757CaochengTiaoxuchi    1.00   0.00  0.12  0.00  0.87  0.01  0.00  0.00  0.00  0.00
  WSF200WS02003060        1.00   0.00  0.13  0.00  0.00  0.87  0.00  0.00  0.59  0.00
  1                       1.00   0.00  0.00  0.00  0.00  1.00  0.00  0.00  0.27  0.00
  
  
  *************************
  Conduit Surcharge Summary
  *************************
  
  ----------------------------------------------------------------------------
                                                           Hours        Hours 
                         --------- Hours Full --------   Above Full   Capacity
  Conduit                Both Ends  Upstream  Dnstream   Normal Flow   Limited
  ----------------------------------------------------------------------------
  WS02006229WS02006228        0.01      0.01      0.01      0.65         0.01
  WS02006256WS02006235        0.01      0.01      6.47      6.44         0.01
  WS02006231WS02006230        0.01      0.01      0.01      0.19         0.01
  WS02006230WS02006229        0.25      0.25      0.27      0.31         0.01
  WS02006228WS02006109        0.01      0.05      0.01      1.27         0.01
  WS02006111WS02006112        0.01      0.01      0.90      0.01         0.01
  WS02006109WS02006110        0.01      0.01      0.05      0.01         0.01
  WS02004404WS02004405        0.01      0.01      0.01      1.96         0.01
  HS02004480HS02004478        0.01      0.01      0.01      0.58         0.01
  YS02001759YS02001757        6.00      6.00      6.07      0.01         0.01
  YS02001762YS02001759        5.98      5.98      6.00      0.01         0.01
  YS02001765YS02001762        5.96      5.96      5.98      0.01         0.01
  YS02001770YS02001767        5.94      5.95      5.94      0.33         0.74
  YS02001774YS02001770        5.92      5.92      5.97      0.01         0.01
  YS02001779YS02001774        5.81      5.81      5.97      0.01         0.01
  YS02001649YS02001757        5.98      5.98      6.07      0.01         0.01
  YS02001767YS02001765        5.94      5.94      5.96      0.01         0.01
  YS02006561YS02001783        0.49      0.49      1.07      0.01         0.01
  YS02001783YS02001784        1.02      1.07      1.02      1.43         1.02
  YS02001784YS02001785        0.79      1.02      0.79      2.24         0.79
  YS02001788YS02001790        0.01      0.01      0.22      0.01         0.01
  YS02001790YS02001791        0.21      0.22      0.21      0.98         0.21
  YS02001791YS02001793        0.21      0.21      0.41      0.01         0.01
  YS02001910YS02001907        1.13      1.13      1.71      0.01         0.01
  YS02001786YS02001788        0.01      0.78      0.01      1.85         0.01
  YS02001915YS02001910        0.90      0.90      1.13      0.01         0.01
  YS02001918YS02001915        0.57      0.57      0.90      0.01         0.01
  YS02001923YS02001920        0.42      0.42      0.62      0.01         0.01
  YS02001920YS02001918        0.57      0.57      0.62      0.01         0.01
  YS02001629YS02163301        5.92      5.92      5.94      0.01         0.01
  YS02001619YS02001622        5.73      5.73      5.75      0.01         0.01
  YS02001622YS02001625        5.75      5.75      5.91      0.01         0.01
  YS02001625YS02001629        5.73      5.73      5.91      0.01         0.01
  YS02163301YS02001633        5.94      5.94      5.96      0.01         0.01
  YS02163601YS02164001        5.96      5.96      5.98      0.01         0.01
  YS02164001YS02001641        5.96      5.96      5.96      0.01         0.03
  YS02001641YS02001644        5.96      5.96      5.97      1.53         1.62
  YS02001647YS02001649        5.90      5.90      5.98      0.01         0.01
  YS02006553YS02006556        1.36      1.36      1.79      0.01         0.01
  YS02006556YS02006558        1.51      1.51      1.85      0.01         0.01
  YS02001907YS02006553        2.25      2.25      2.46      0.01         0.01
  YS02006558YS02006561        0.79      1.32      0.79      2.10         0.79
  YS02001633YS02163601        5.95      5.95      5.98      0.01         0.01
  YS02001644YS02001647        5.90      5.90      5.97      0.01         0.01
  YS02001745YS02001748        0.01      0.01      5.60      0.01         0.01
  YS02001748YS02001751        5.64      5.64      5.73      0.01         0.01
  YS02001751YS02001754        5.73      5.73      5.84      0.01         0.01
  YS02001754YS02001757        5.89      5.89      6.07      0.01         0.01
  YS02001882YS02001884        0.92      0.92      0.96      0.01         0.01
  YS02001884YS02001887        1.02      1.02      1.05      0.01         0.01
  YS02001890YS02001895        0.89      0.89      1.15      0.01         0.01
  YS02001895YS02001898        0.87      0.87      0.89      0.01         0.01
  YS02001898YS02001901        0.89      0.89      1.01      0.01         0.01
  YS02001901YS02001904        0.98      0.98      1.01      0.01         0.01
  YS02001904YS02001907        0.98      0.98      1.82      0.01         0.01
  YS02001887YS02001890        1.08      1.08      1.11      0.01         0.01
  YS02001652YS02001649        5.90      5.90      5.98      0.01         0.01
  YS02001655YS02001652        5.75      5.75      5.89      0.01         0.01
  YS02001658YS02001655        5.63      5.63      5.75      0.01         0.01
  YS02001661YS02001658        0.11      0.11      5.63      0.01         0.01
  YS02001664YS02001661        0.01      0.01      1.12      0.01         0.01
  YS02001793JiankangQianchi        0.37      0.37      1.12      0.01         0.01
  YS02001757CaochengTiaoxuchi        5.44      5.44      6.07      0.01         0.01
  
  
  ***************
  Pumping Summary
  ***************
  
  ---------------------------------------------------------------------------------------------------------
                                                  Min       Avg       Max     Total     Power    % Time Off
                        Percent   Number of      Flow      Flow      Flow    Volume     Usage    Pump Curve
  Pump                 Utilized   Start-Ups       LPS       LPS       LPS  10^6 ltr     Kw-hr    Low   High
  ---------------------------------------------------------------------------------------------------------
  CC-Pump-1                0.00           0      0.00      0.00      0.00     0.000      0.00    0.0    0.0
  CC-Pump-2                0.00           0      0.00      0.00      0.00     0.000      0.00    0.0    0.0
  JK-Pump-1              100.00           1      0.00    219.20    300.00     5.319    108.92    0.0    0.0
  JK-Pump-2              100.00           1      0.00    354.08    683.00     8.220    159.06    0.0   97.9
  XR-Pump-1                0.00           0      0.00      0.00      0.00     0.000      0.00    0.0    0.0
  XR-Pump-2                0.00           0      0.00      0.00      0.00     0.000      0.00    0.0    0.0
  XR-Pump-3              100.00           1      0.00     95.00     95.00     2.736     16.56    0.0    0.0
  XR-Pump-4              100.00           1      0.00     95.00     95.00     2.736     16.56    0.0    0.0
  
  
  ***************************
  Link Pollutant Load Summary
  ***************************
  
  ------------------------------------------------------------------------------------------
                                 COD            SS            TN            TP         NH4-N
  Link                            kg            kg            kg            kg            kg
  ------------------------------------------------------------------------------------------
  WS02003066WSF200           279.171       522.638         9.445         0.946         5.246
  WS02006287WS02006284       275.414       515.855         9.569         0.967         5.340
  WS02006284WS02006280       275.890       516.626         9.615         0.972         5.369
  WS02006280WS02006229       275.868       516.587         9.613         0.972         5.367
  WS02006229WS02006228       270.975       506.426         9.442         0.954         5.273
  WS02006256WS02006235       164.536       314.158         3.179         0.230         1.554
  WS02006253WS02006251        45.199        88.808         0.983         0.072         0.484
  WS02006252WS02006251         0.000         0.000         0.000         0.000         0.000
  WS02006251WS02006249         4.525         8.974         0.095         0.007         0.046
  WS02006249WS02006248         4.498         8.925         0.093         0.007         0.045
  WS02006248WS02006247         4.502         8.933         0.093         0.007         0.045
  WS02006247WS02006245         4.497         8.926         0.093         0.007         0.045
  WS02006245WS02006243         4.461         8.859         0.092         0.007         0.045
  WS02006243WS02006242         4.487         8.912         0.092         0.007         0.045
  WS02006242WS02006240         4.439         8.827         0.091         0.006         0.044
  WS02006240WS02006239         4.419         8.792         0.090         0.006         0.043
  WS02006239WS02006238         4.261         8.494         0.086         0.006         0.042
  WS02006238WS02006235         4.283         8.543         0.086         0.006         0.042
  WS02006235WS02006234        18.753        36.383         0.404         0.032         0.203
  WS02006234WS02006232        19.320        37.503         0.417         0.033         0.209
  WS02006232WS02006231        20.096        39.035         0.435         0.035         0.218
  WS02006231WS02006230        20.501        39.837         0.444         0.035         0.223
  WS02006230WS02006229        22.593        43.959         0.492         0.039         0.247
  WS02006228WS02006109       270.366       505.439         9.384         0.947         5.236
  WS02006116WS02004401       285.211       532.165        10.031         1.019         5.612
  WS02006115WS02006116       285.756       533.034        10.089         1.026         5.648
  WS02006113WS02006111       277.582       517.016        10.074         1.033         5.667
  WS02006112WS02006115       286.246       533.793        10.137         1.033         5.678
  WS02006111WS02006112       277.420       516.772        10.053         1.031         5.654
  WS02006110WS02006113       277.700       517.189        10.087         1.035         5.676
  WS02006109WS02006110       278.372       518.238        10.155         1.043         5.718
  WS02004411WS02004412       280.597       524.758         9.601         0.966         5.344
  WS02004401WS02004402       284.519       531.071         9.966         1.011         5.571
  WS02004413WS02003067       279.636       523.422         9.481         0.950         5.268
  WS02004412WS02004413       280.030       523.862         9.544         0.959         5.308
  WS02004410WS02004411       280.989       525.388         9.639         0.970         5.367
  WS02004409WS02004410       281.264       525.807         9.669         0.974         5.386
  WS02004407WS02004409       281.538       526.270         9.693         0.977         5.401
  WS02004406WS02004407       281.692       526.557         9.702         0.978         5.407
  WS02004405WS02004406       283.154       528.854         9.844         0.996         5.496
  WS02004404WS02004405       283.858       530.038         9.904         1.003         5.533
  WS02004403WS02004404       283.179       528.941         9.838         0.995         5.492
  WS02004402WS02004403       283.803       529.921         9.898         1.003         5.529
  WS02004139WS02001211        69.589       114.833         5.873         0.723         3.640
  WS02004138WS02004139       794.081      1305.783        66.920         8.214        41.383
  WS02003067WS02003066       279.164       522.603         9.448         0.946         5.248
  WS02001213WS02003059        21.886        38.626         1.267         0.147         0.761
  WS02001212WS02001213        18.988        34.074         0.974         0.111         0.577
  WS02001211WS02001212        18.424        32.939         0.967         0.110         0.574
  WS02003072WS02003073       374.260       669.803        19.675         2.239        11.680
  WS02003069WS02003072       375.346       671.360        19.809         2.256        11.765
  WS02003060WS02003069       373.577       668.539        19.638         2.235        11.658
  WS02003059WS02003060        26.069        46.711         1.387         0.159         0.825
  HS02004901HS02004770        10.664        20.429         0.202         0.015         0.095
  HS02004876HS02004881        38.224        75.006         0.858         0.064         0.424
  HS02004870HS02004876        28.881        56.520         0.691         0.053         0.345
  HS02004842HS02004848         5.509        10.440         0.115         0.008         0.053
  HS02004837HS02004842        10.114        17.748         0.584         0.067         0.347
  HS02004830HS02004837        66.952       115.335         4.653         0.558         2.844
  HS02004824HS02004830        67.726       116.576         4.726         0.567         2.890
  HS02004817HS02004824        89.791       160.468         5.185         0.597         3.114
  HS02004770HS02004777        40.737        79.003         0.843         0.057         0.388
  HS02004799HS02004480       136.146       256.552         3.783         0.345         1.987
  HS02004792HS02004799       123.600       231.170         3.597         0.336         1.906
  HS02004788HS02004792        70.684       132.243         2.448         0.241         1.342
  HS02004785HS02004788        42.223        81.381         0.997         0.076         0.485
  HS02004777HS02004785        41.544        80.282         0.935         0.069         0.447
  HS02004480HS02004478       171.388       325.784         4.357         0.385         2.255
  HS02004479HS02004480        38.885        75.040         0.902         0.081         0.472
  HS02004862HS02004870        21.645        41.695         0.548         0.044         0.277
  HS02004848HS02004852         8.385        16.063         0.172         0.012         0.079
  HS02004856HS02004862        14.498        28.434         0.290         0.019         0.136
  HS02004852HS02004856         8.389        16.070         0.173         0.012         0.080
  HS02004802HS02004478       104.687       191.137         5.266         0.588         3.118
  HS02004478WS02006287       275.602       516.165         9.585         0.969         5.350
  HS02004817HS02004807        88.541       158.464         5.065         0.582         3.039
  HS02004807HS02004802       104.963       191.573         5.300         0.593         3.140
  YS02001759YS02001757       277.076       506.872         5.556         0.387         2.719
  YS02001762YS02001759       165.581       304.143         3.456         0.244         1.708
  YS02001765YS02001762       167.006       307.665         3.502         0.248         1.733
  YS02001770YS02001767       170.415       316.450         3.411         0.230         1.660
  YS02001774YS02001770       231.776       438.567         4.531         0.300         2.192
  YS02001779YS02001774       231.151       437.388         4.608         0.312         2.246
  YS02001649YS02001757       409.887       736.692         8.375         0.574         4.051
  YS02001767YS02001765       169.029       312.294         3.554         0.252         1.760
  YS02006561YS02001783       976.982      1800.702        20.613         1.549        10.286
  YS02001783YS02001784       976.899      1800.595        20.609         1.549        10.284
  YS02001784YS02001785       984.427      1812.687        21.338         1.640        10.740
  YS02001788YS02001790       985.098      1813.818        21.412         1.650        10.787
  YS02001790YS02001791       986.043      1815.360        21.512         1.662        10.850
  YS02001791YS02001793       986.235      1815.776        21.512         1.662        10.849
  YS02001910YS02001907       325.379       590.357         8.162         0.640         4.224
  YS02001786YS02001788       984.656      1813.085        21.367         1.644        10.758
  YS02001915YS02001910       325.397       590.365         8.116         0.633         4.193
  YS02001918YS02001915       154.228       267.006         4.567         0.429         2.495
  YS02001923YS02001920       133.967       234.689         2.575         0.179         1.249
  YS02001926YS02001923       133.676       234.244         2.538         0.174         1.225
  YS02001929YS02001926       133.428       233.831         2.506         0.170         1.204
  YS02001920YS02001918       154.269       267.162         4.536         0.424         2.474
  YS02001629YS02163301       102.278       181.672         2.142         0.138         0.999
  YS02001619YS02001622       144.500       259.813         2.989         0.194         1.394
  YS02001622YS02001625       143.368       258.034         2.962         0.192         1.382
  YS02001625YS02001629       103.355       183.443         2.166         0.140         1.009
  YS02163301YS02001633       102.134       181.441         2.137         0.138         0.997
  YS02163601YS02164001       357.000       637.859         7.017         0.496         3.357
  YS02164001YS02001641       356.539       637.094         6.997         0.494         3.346
  YS02001641YS02001644       356.759       637.400         6.996         0.494         3.345
  YS02001647YS02001649       461.522       831.988         9.414         0.648         4.536
  YS02006553YS02006556       700.080      1285.824        15.049         1.157         7.583
  YS02006556YS02006558       700.162      1285.970        15.022         1.153         7.564
  YSB6556YSB1171              22.385        43.412         0.460         0.039         0.234
  YS02001907YS02006553       700.153      1285.964        15.059         1.159         7.589
  YS02006558YS02006561       976.995      1800.707        20.613         1.549        10.286
  YS02001633YS02163601       357.640       638.831         6.995         0.492         3.340
  YS02001644YS02001647       466.655       841.931         9.493         0.653         4.572
  YS02001745YS02001748       200.662       371.021         4.019         0.245         1.925
  YS02001748YS02001751       199.957       369.824         4.027         0.247         1.933
  YS02001751YS02001754       199.005       368.267         4.010         0.247         1.926
  YS02001754YS02001757       199.836       369.539         4.178         0.270         2.035
  YS02001882YS02001884         2.393         4.129         0.049         0.004         0.025
  YS02001884YS02001887         6.873        12.252         0.135         0.010         0.067
  YS02001890YS02001895       387.871       720.293         7.155         0.538         3.493
  YS02001895YS02001898       387.750       720.156         7.150         0.537         3.489
  YS02001898YS02001901       387.573       719.861         7.146         0.537         3.487
  YS02001901YS02001904       387.461       719.721         7.152         0.538         3.492
  YS02001904YS02001907       387.707       720.115         7.205         0.545         3.526
  YS02001887YS02001890       388.613       721.376         7.209         0.544         3.526
  YS02001652YS02001649       162.461       298.149         3.302         0.237         1.548
  YS02001655YS02001652       163.111       299.172         3.320         0.239         1.557
  YS02001658YS02001655       162.790       298.657         3.237         0.227         1.502
  YS02001661YS02001658       163.665       300.096         3.257         0.229         1.511
  YS02001664YS02001661       177.614       323.180         3.567         0.250         1.653
  YSB1154YSB6556              21.960        42.737         0.410         0.032         0.202
  YSB1174YSB1171              14.964        29.157         0.304         0.025         0.152
  YSB1171HS02004479           38.854        74.992         0.905         0.081         0.474
  HS02004881HS02006253        43.025        84.623         0.948         0.070         0.467
  YS02001793JiankangQianchi       986.509      1816.404        21.514         1.662        10.850
  YS02001757CaochengTiaoxuchi       396.507       734.279         7.609         0.521         3.646
  WSF200WS02003060           279.002       522.318         9.437         0.945         5.241
  1                          386.266       688.591        20.896         2.393        12.446
  CC-Pump-1                    0.000         0.000         0.000         0.000         0.000
  CC-Pump-2                    0.000         0.000         0.000         0.000         0.000
  JK-Pump-1                  180.112       343.747         3.483         0.252         1.703
  JK-Pump-2                  410.055       782.598         7.929         0.573         3.877
  XR-Pump-1                    0.000         0.000         0.000         0.000         0.000
  XR-Pump-2                    0.000         0.000         0.000         0.000         0.000
  XR-Pump-3                  397.483       653.613        33.498         4.112        20.715
  XR-Pump-4                  397.483       653.613        33.498         4.112        20.715
  3                           41.254        80.774         0.941         0.072         0.471
  5                          172.703       331.137         3.375         0.246         1.654
  6                          865.633      1423.760        72.981         8.961        45.141
  

  Analysis begun on:  Thu Jul  8 15:35:28 2021
  Analysis ended on:  Thu Jul  8 15:35:31 2021
  Total elapsed time: 00:00:03