
  EPA STORM WATER MANAGEMENT MODEL - VERSION 5.1 (Build 5.3.0.dev0)
  --------------------------------------------------------------

  WARNING 04: minimum elevation drop used for Conduit WS02004404WS02004405
  WARNING 03: negative offset ignored for Link YS02001904YS02001907
  
  *********************************************************
  NOTE: The summary statistics displayed in this report are
  based on results found at every computational time step,  
  not just on results from each reporting time step.
  *********************************************************
  
  ****************
  Analysis Options
  ****************
  Flow Units ............... LPS
  Process Models:
    Rainfall/Runoff ........ YES
    RDII ................... NO
    Snowmelt ............... NO
    Groundwater ............ NO
    Flow Routing ........... YES
    Ponding Allowed ........ NO
    Water Quality .......... NO
  Infiltration Method ...... HORTON
  Flow Routing Method ...... DYNWAVE
  Surcharge Method ......... EXTRAN
  Starting Date ............ 08/28/2015 08:00:00
  Ending Date .............. 08/28/2015 15:50:00
  Antecedent Dry Days ...... 8.0
  Report Time Step ......... 00:01:00
  Wet Time Step ............ 00:01:00
  Dry Time Step ............ 00:01:00
  Routing Time Step ........ 5.00 sec
  Variable Time Step ....... YES
  Maximum Trials ........... 8
  Number of Threads ........ 4
  Head Tolerance ........... 0.001500 m
  
  
  **************************        Volume         Depth
  Runoff Quantity Continuity     hectare-m            mm
  **************************     ---------       -------
  Total Precipitation ......         1.959         4.290
  Evaporation Loss .........         0.000         0.000
  Infiltration Loss ........         0.484         1.060
  Surface Runoff ...........         0.669         1.465
  Final Storage ............         0.806         1.766
  Continuity Error (%) .....        -0.017
  
  
  **************************        Volume        Volume
  Flow Routing Continuity        hectare-m      10^6 ltr
  **************************     ---------     ---------
  Dry Weather Inflow .......         0.616         6.165
  Wet Weather Inflow .......         0.669         6.687
  Groundwater Inflow .......         0.000         0.000
  RDII Inflow ..............         0.000         0.000
  External Inflow ..........         0.102         1.024
  External Outflow .........         0.945         9.454
  Flooding Loss ............         0.000         0.000
  Evaporation Loss .........         0.000         0.000
  Exfiltration Loss ........         0.000         0.000
  Initial Stored Volume ....         0.076         0.761
  Final Stored Volume ......         0.513         5.131
  Continuity Error (%) .....         0.353
  
  
  *************************
  Highest Continuity Errors
  *************************
  Node HS02004842 (36.20%)
  Node YS02001884 (30.39%)
  Node YS02001774 (28.70%)
  Node YS02001625 (10.63%)
  Node YSB1171 (10.25%)
  
  
  ***************************
  Time-Step Critical Elements
  ***************************
  Link 3 (59.62%)
  Link WS02006280WS02006229 (24.26%)
  Link WS02006238WS02006235 (4.95%)
  Link YS02001649YS02001757 (1.06%)
  
  
  ********************************
  Highest Flow Instability Indexes
  ********************************
  Link WS02006113WS02006111 (22)
  Link YS02001629YS02163301 (6)
  Link YS02001641YS02001644 (6)
  Link YS02001754YS02001757 (6)
  Link YS02001767YS02001765 (6)
  
  
  *************************
  Routing Time Step Summary
  *************************
  Minimum Time Step           :     0.50 sec
  Average Time Step           :     2.05 sec
  Maximum Time Step           :     5.00 sec
  Percent in Steady State     :    -0.00
  Average Iterations per Step :     2.16
  Percent Not Converging      :     0.97
  
  
  ***************************
  Subcatchment Runoff Summary
  ***************************
  
  ------------------------------------------------------------------------------------------------------------------------------
                            Total      Total      Total      Total     Imperv       Perv      Total       Total     Peak  Runoff
                           Precip      Runon       Evap      Infil     Runoff     Runoff     Runoff      Runoff   Runoff   Coeff
  Subcatchment                 mm         mm         mm         mm         mm         mm         mm    10^6 ltr      LPS
  ------------------------------------------------------------------------------------------------------------------------------
  sub0                       4.29       0.00       0.00       0.30       2.73       0.00       2.73        0.00     0.90   0.635
  sub1                       4.29       0.00       0.00       0.47       2.57       0.00       2.57        0.02     4.48   0.598
  sub2                       4.29       0.00       0.00       1.59       1.80       0.00       1.80        0.02     3.91   0.419
  sub3                       4.29       0.00       0.00       1.59       1.77       0.00       1.77        0.04     7.91   0.412
  sub4                       4.29       0.00       0.00       0.47       2.44       0.00       2.44        0.05     8.75   0.568
  sub5                       4.29       0.00       0.00       0.30       2.68       0.00       2.68        0.03     7.96   0.625
  sub7                       4.29       0.00       0.00       0.39       2.65       0.00       2.65        0.01     2.87   0.618
  sub8                       4.29       0.00       0.00       0.39       2.64       0.00       2.64        0.02     5.03   0.616
  sub9                       4.29       0.00       0.00       0.39       2.64       0.00       2.64        0.01     3.72   0.615
  sub10                      4.29       0.00       0.00       0.34       2.66       0.00       2.66        0.03     7.98   0.620
  sub11                      4.29       0.00       0.00       0.34       2.67       0.00       2.67        0.03     9.48   0.623
  sub12                      4.29       0.00       0.00       0.56       2.54       0.00       2.54        0.02     8.21   0.593
  sub14                      4.29       0.00       0.00       0.39       2.64       0.00       2.64        0.03     7.26   0.615
  sub15                      4.29       0.00       0.00       1.29       2.03       0.00       2.03        0.03     9.82   0.472
  sub16                      4.29       0.00       0.00       1.42       1.96       0.00       1.96        0.02     7.17   0.456
  sub17                      4.29       0.00       0.00       1.37       1.98       0.00       1.98        0.02     5.77   0.462
  sub22                      4.29       0.00       0.00       1.84       1.66       0.00       1.66        0.10    32.51   0.386
  sub23                      4.29       0.00       0.00       1.59       1.83       0.00       1.83        0.09    27.76   0.427
  sub60                      4.29       0.00       0.00       0.51       1.60       0.00       1.60        0.48    40.77   0.372
  sub61                      4.29       0.00       0.00       0.73       1.76       0.00       1.76        0.54    52.21   0.410
  sub62                      4.29       0.00       0.00       0.34       1.87       0.00       1.87        0.58    53.04   0.436
  sub63                      4.29       0.00       0.00       1.24       1.58       0.00       1.58        0.48    49.15   0.369
  sub64                      4.29       0.00       0.00       0.64       1.52       0.00       1.52        0.46    38.65   0.355
  sub65                      4.29       0.00       0.00       0.56       1.54       0.00       1.54        0.47    39.15   0.359
  sub66                      4.29       0.00       0.00       1.24       1.34       0.00       1.34        0.41    35.67   0.313
  sub67                      4.29       0.00       0.00       0.34       2.11       0.00       2.11        0.65    69.44   0.492
  sub68                      4.29       0.00       0.00       0.60       1.88       0.00       1.88        0.58    58.04   0.439
  sub69                      4.29       0.00       0.00       0.64       2.09       0.00       2.09        0.49    59.02   0.487
  sub70                      4.29       2.13       0.00       2.18       2.41       0.00       2.41        0.55    43.29   0.375
  sub71                      4.29       0.00       0.00       0.34       1.77       0.00       1.77        0.42    36.75   0.413
  sub72                      4.29       0.00       0.00       0.30       1.18       0.00       1.18        0.24    16.67   0.274
  sub73                      4.29       2.35       0.00       2.26       2.35       0.00       2.35        0.55    36.86   0.354
  sub74                      4.29       0.00       0.00       3.22       0.64       0.00       0.64        0.25    33.23   0.148
  
  
  ******************
  Node Depth Summary
  ******************
  
  ---------------------------------------------------------------------------------
                                 Average  Maximum  Maximum  Time of Max    Reported
                                   Depth    Depth      HGL   Occurrence   Max Depth
  Node                 Type       Meters   Meters   Meters  days hr:min      Meters
  ---------------------------------------------------------------------------------
  WS02001211           JUNCTION     0.65     0.69     5.53     0  02:53        0.69
  WS02001212           JUNCTION     0.37     0.40     5.47     0  02:52        0.40
  WS02001213           JUNCTION     0.56     0.63     5.39     0  02:50        0.63
  WS02003069           JUNCTION     0.33     0.42     5.01     0  02:49        0.42
  WS02003072           JUNCTION     0.40     0.49     4.86     0  02:50        0.49
  WS02003073           JUNCTION     0.23     0.29     4.36     0  02:51        0.29
  WS02003060           JUNCTION     0.30     0.38     5.31     0  02:49        0.38
  WS02003066           JUNCTION     0.14     0.21     5.77     0  02:48        0.21
  WS02003059           JUNCTION     0.62     0.68     5.37     0  02:50        0.68
  WS02003067           JUNCTION     0.37     0.54     5.86     0  02:48        0.54
  WS02004401           JUNCTION     0.43     0.62     6.62     0  02:44        0.62
  WS02004402           JUNCTION     0.46     0.65     6.61     0  02:44        0.65
  WS02004403           JUNCTION     0.49     0.68     6.61     0  02:44        0.68
  WS02004404           JUNCTION     0.57     0.76     6.61     0  02:44        0.76
  WS02004406           JUNCTION     0.58     0.77     6.60     0  02:45        0.77
  WS02004409           JUNCTION     0.24     0.42     6.19     0  02:46        0.42
  WS02004410           JUNCTION     0.27     0.45     6.17     0  02:46        0.45
  WS02004411           JUNCTION     0.29     0.47     6.15     0  02:47        0.47
  WS02004412           JUNCTION     0.32     0.49     6.13     0  02:47        0.49
  WS02004413           JUNCTION     0.46     0.66     6.13     0  02:47        0.66
  WS02004405           JUNCTION     0.56     0.75     6.60     0  02:44        0.75
  WS02006109           JUNCTION     0.48     0.69     7.31     0  02:42        0.69
  WS02006110           JUNCTION     0.51     0.70     7.28     0  02:42        0.70
  WS02006111           JUNCTION     0.11     0.20     6.91     0  02:42        0.20
  WS02006112           JUNCTION     0.57     0.77     6.66     0  02:43        0.77
  WS02006113           JUNCTION     0.17     0.30     7.20     0  02:42        0.30
  WS02006115           JUNCTION     0.31     0.50     6.63     0  02:43        0.49
  WS02006116           JUNCTION     0.40     0.58     6.62     0  02:43        0.58
  WS02006230           JUNCTION     0.38     0.60     7.35     0  02:41        0.60
  WS02006231           JUNCTION     0.20     0.35     7.47     0  02:41        0.35
  WS02006232           JUNCTION     0.30     0.47     7.51     0  02:41        0.47
  WS02006234           JUNCTION     0.21     0.37     7.53     0  02:41        0.37
  WS02006235           JUNCTION     0.24     0.40     7.56     0  02:40        0.40
  WS02006238           JUNCTION     0.26     0.42     7.56     0  02:40        0.41
  WS02006240           JUNCTION     0.13     0.27     7.56     0  02:41        0.27
  WS02006242           JUNCTION     0.16     0.29     7.56     0  02:41        0.29
  WS02006243           JUNCTION     0.06     0.15     7.57     0  02:41        0.15
  WS02006245           JUNCTION     0.06     0.13     7.61     0  02:25        0.13
  WS02006247           JUNCTION     0.06     0.15     7.65     0  02:25        0.15
  WS02006248           JUNCTION     0.04     0.11     7.70     0  02:24        0.11
  WS02006249           JUNCTION     0.07     0.15     7.75     0  02:23        0.15
  WS02006239           JUNCTION     0.20     0.35     7.56     0  02:40        0.35
  WS02006251           JUNCTION     0.05     0.13     7.80     0  02:22        0.13
  WS02006252           JUNCTION     0.00     0.00     8.24     0  00:00        0.00
  WS02006253           JUNCTION     0.09     0.18     7.83     0  02:21        0.18
  WS02006256           JUNCTION     0.77     1.16     8.10     0  02:30        1.13
  WS02004138           JUNCTION     0.15     0.17     7.42     0  07:46        0.17
  WS02004407           JUNCTION     0.11     0.20     6.51     0  02:45        0.20
  WS02006228           JUNCTION     0.46     0.67     7.33     0  02:42        0.67
  WS02006229           JUNCTION     0.42     0.64     7.34     0  02:41        0.64
  WS02006280           JUNCTION     0.05     0.11     8.39     0  02:22        0.11
  WS02006284           JUNCTION     0.34     0.44     8.84     0  02:22        0.44
  WS02006287           JUNCTION     0.07     0.17     9.12     0  02:22        0.17
  WSF200               JUNCTION     0.11     0.18     5.42     0  02:48        0.18
  HS02004901           JUNCTION     0.10     0.19    10.01     0  02:20        0.19
  HS02004881           JUNCTION     0.01     0.02     9.05     0  02:21        0.02
  HS02004876           JUNCTION     0.03     0.09     9.12     0  02:21        0.09
  HS02004870           JUNCTION     0.01     0.03     9.32     0  02:21        0.03
  HS02004862           JUNCTION     0.01     0.03     9.42     0  02:23        0.03
  HS02004856           JUNCTION     0.07     0.09     9.52     0  02:22        0.09
  HS02004852           JUNCTION     0.01     0.02     9.53     0  02:23        0.02
  HS02004848           JUNCTION     0.01     0.02     9.62     0  02:20        0.02
  HS02004842           JUNCTION     0.33     0.35     9.62     0  02:19        0.35
  HS02004837           JUNCTION     0.03     0.04     9.62     0  02:19        0.04
  HS02004830           JUNCTION     0.04     0.05     9.52     0  02:20        0.05
  HS02004824           JUNCTION     0.02     0.03     9.43     0  02:23        0.03
  HS02004817           JUNCTION     0.42     0.49     9.34     0  02:22        0.49
  HS02004807           JUNCTION     0.11     0.17     9.34     0  02:22        0.17
  HS02004802           JUNCTION     0.14     0.20     9.33     0  02:22        0.20
  HS02004799           JUNCTION     0.10     0.20     9.41     0  02:20        0.20
  HS02004792           JUNCTION     0.02     0.07     9.59     0  02:20        0.07
  HS02004788           JUNCTION     0.02     0.05     9.95     0  02:21        0.05
  HS02004785           JUNCTION     0.03     0.10    10.00     0  02:21        0.10
  HS02004777           JUNCTION     0.13     0.21    10.01     0  02:20        0.21
  HS02004770           JUNCTION     0.10     0.18    10.01     0  02:20        0.18
  HS02004480           JUNCTION     0.06     0.15     9.39     0  02:21        0.15
  HS02004479           JUNCTION     0.10     0.19     9.40     0  02:21        0.19
  HS02004478           JUNCTION     0.05     0.10     9.32     0  02:22        0.10
  YS02001745           JUNCTION     0.13     0.43     7.95     0  07:50        0.43
  YS02001748           JUNCTION     0.38     0.87     7.95     0  07:50        0.87
  YS02001751           JUNCTION     0.54     1.07     7.95     0  07:50        1.07
  YS02001754           JUNCTION     0.77     1.34     7.95     0  07:50        1.34
  YS02001762           JUNCTION     0.96     1.55     7.95     0  07:50        1.55
  YS02001765           JUNCTION     0.91     1.50     7.95     0  07:50        1.50
  YS02001767           JUNCTION     0.88     1.46     7.95     0  07:50        1.46
  YS02001770           JUNCTION     0.88     1.45     7.95     0  07:50        1.45
  YS02001774           JUNCTION     0.94     1.53     7.95     0  07:50        1.53
  YS02001779           JUNCTION     0.70     1.26     7.95     0  07:50        1.26
  YS02001882           JUNCTION     0.23     0.34     7.05     0  02:54        0.34
  YS02001884           JUNCTION     0.32     0.44     7.05     0  02:55        0.44
  YS02001759           JUNCTION     0.99     1.58     7.95     0  07:50        1.58
  YS02001887           JUNCTION     0.40     0.51     7.05     0  02:55        0.51
  YS02001890           JUNCTION     0.43     0.55     7.05     0  02:55        0.55
  YS02001898           JUNCTION     0.20     0.30     7.04     0  02:56        0.30
  YS02001901           JUNCTION     0.32     0.43     7.04     0  02:56        0.43
  YS02001904           JUNCTION     0.30     0.40     7.03     0  02:56        0.40
  YS02001907           JUNCTION     0.62     0.75     7.04     0  02:57        0.75
  YS02001910           JUNCTION     0.41     0.53     7.04     0  02:57        0.53
  YS02001915           JUNCTION     0.22     0.32     7.03     0  02:56        0.32
  YS02001918           JUNCTION     0.06     0.07     7.14     0  03:04        0.07
  YS02001619           JUNCTION     0.50     1.02     7.95     0  07:50        1.02
  YS02001629           JUNCTION     0.83     1.40     7.95     0  07:50        1.40
  YS02001641           JUNCTION     0.93     1.51     7.95     0  07:50        1.51
  YS02001644           JUNCTION     0.93     1.52     7.95     0  07:50        1.52
  YS02001652           JUNCTION     0.78     1.35     7.95     0  07:50        1.35
  YS02001655           JUNCTION     0.56     1.10     7.95     0  07:50        1.10
  YS02001920           JUNCTION     0.15     0.17     7.18     0  03:03        0.17
  YS02001923           JUNCTION     0.05     0.06     7.32     0  03:02        0.06
  YS02001926           JUNCTION     0.11     0.14     7.58     0  03:02        0.14
  YS02001929           JUNCTION     0.05     0.06     7.76     0  03:01        0.06
  YS02001658           JUNCTION     0.33     0.81     7.95     0  07:50        0.81
  YS02001661           JUNCTION     0.22     0.54     7.95     0  07:50        0.54
  YS02001664           JUNCTION     0.06     0.09     8.01     0  02:47        0.09
  YS02001622           JUNCTION     0.52     1.04     7.95     0  07:50        1.04
  YS02001633           JUNCTION     0.91     1.49     7.95     0  07:50        1.49
  YS02001649           JUNCTION     0.97     1.56     7.95     0  07:50        1.56
  YS02001757           JUNCTION     1.09     1.69     7.95     0  07:50        1.69
  YS02001895           JUNCTION     0.20     0.30     7.05     0  02:55        0.30
  YS02001625           JUNCTION     0.79     1.34     7.95     0  07:50        1.34
  YS02163301           JUNCTION     0.85     1.43     7.95     0  07:50        1.43
  YS02163601           JUNCTION     0.97     1.55     7.95     0  07:50        1.55
  YS02164001           JUNCTION     0.91     1.49     7.95     0  07:50        1.49
  YS02001647           JUNCTION     0.77     1.34     7.95     0  07:50        1.34
  YSB1154              JUNCTION     0.23     0.34     9.40     0  02:21        0.34
  YSB6556              JUNCTION     0.13     0.23     9.40     0  02:21        0.23
  YSB1174              JUNCTION     0.19     0.29     9.40     0  02:21        0.29
  YSB1171              JUNCTION     0.39     0.49     9.40     0  02:21        0.49
  YS02006553           JUNCTION     0.63     0.75     7.03     0  02:57        0.75
  YS02006561           JUNCTION     0.11     0.17     6.83     0  02:56        0.17
  YS02006556           JUNCTION     0.60     0.72     7.03     0  02:56        0.72
  YS02006558           JUNCTION     0.64     0.77     7.03     0  02:56        0.77
  YS02001783           JUNCTION     0.19     0.29     6.43     0  02:57        0.29
  YS02001784           JUNCTION     0.22     0.32     6.39     0  02:57        0.32
  YS02001786           JUNCTION     0.19     0.27     6.30     0  02:57        0.27
  YS02001788           JUNCTION     0.13     0.20     6.18     0  02:58        0.20
  YS02001790           JUNCTION     0.16     0.24     5.89     0  02:58        0.24
  YS02001791           JUNCTION     0.11     0.16     5.63     0  02:53        0.16
  YS02001793           JUNCTION     0.14     0.59     5.42     0  04:08        0.57
  WS02004139           JUNCTION     0.59     0.64     5.55     0  02:53        0.64
  WSC                  OUTFALL      0.23     0.29     0.96     0  02:51        0.29
  3                    OUTFALL      0.06     0.13     6.13     0  02:30        0.12
  4                    OUTFALL      0.00     0.00     7.00     0  00:00        0.00
  5                    OUTFALL      0.00     0.00     5.00     0  00:00        0.00
  JK-storage           STORAGE      3.82     4.58     5.38     0  03:47        4.57
  CC-storage           STORAGE      0.41     0.95     7.95     0  07:50        0.95
  XR-storage           STORAGE      6.62     7.00     5.00     0  03:27        7.00
  
  
  *******************
  Node Inflow Summary
  *******************
  
  -------------------------------------------------------------------------------------------------
                                  Maximum  Maximum                  Lateral       Total        Flow
                                  Lateral    Total  Time of Max      Inflow      Inflow     Balance
                                   Inflow   Inflow   Occurrence      Volume      Volume       Error
  Node                 Type           LPS      LPS  days hr:min    10^6 ltr    10^6 ltr     Percent
  -------------------------------------------------------------------------------------------------
  WS02001211           JUNCTION      7.35   294.60     0  07:47       0.207         6.4       0.586
  WS02001212           JUNCTION      0.00   293.62     0  02:58           0        6.36       0.306
  WS02001213           JUNCTION      0.00   294.12     0  02:58           0        6.34       0.309
  WS02003069           JUNCTION      0.32   535.96     0  02:49     0.00902        8.54       0.204
  WS02003072           JUNCTION      0.00   535.88     0  02:50           0        8.52       0.268
  WS02003073           JUNCTION      1.82   537.68     0  02:50      0.0514        8.55       0.276
  WS02003060           JUNCTION     16.53   535.49     0  02:48       0.466        8.55       0.210
  WS02003066           JUNCTION      0.00   231.64     0  02:48           0         1.8       0.100
  WS02003059           JUNCTION      0.00   295.13     0  02:57           0        6.33       0.556
  WS02003067           JUNCTION      0.00   231.66     0  02:47           0         1.8       0.269
  WS02004401           JUNCTION      0.00   252.16     0  02:43           0        1.92       0.590
  WS02004402           JUNCTION      0.00   249.44     0  02:43           0        1.91       0.599
  WS02004403           JUNCTION      0.00   247.94     0  02:44           0         1.9       0.579
  WS02004404           JUNCTION      0.16   246.94     0  02:44     0.00457        1.89       0.488
  WS02004406           JUNCTION      0.00   245.17     0  02:44           0        1.87       1.179
  WS02004409           JUNCTION      0.00   244.02     0  02:45           0        1.85       0.224
  WS02004410           JUNCTION      0.00   241.17     0  02:46           0        1.84       0.330
  WS02004411           JUNCTION      0.00   238.12     0  02:46           0        1.84       0.396
  WS02004412           JUNCTION      0.00   235.55     0  02:46           0        1.83       0.507
  WS02004413           JUNCTION      0.00   233.49     0  02:47           0        1.82       0.871
  WS02004405           JUNCTION      0.04   246.16     0  02:44     0.00107        1.88       0.715
  WS02006109           JUNCTION      1.23   259.12     0  02:41      0.0347        1.96       0.525
  WS02006110           JUNCTION      0.00   258.84     0  02:42           0        1.95       0.499
  WS02006111           JUNCTION      0.00   260.49     0  02:42           0        1.94       0.046
  WS02006112           JUNCTION      5.77   261.16     0  02:42       0.017        1.95       0.792
  WS02006113           JUNCTION      0.00   258.63     0  02:42           0        1.94       0.108
  WS02006115           JUNCTION      0.00   258.44     0  02:42           0        1.94       0.424
  WS02006116           JUNCTION      0.00   254.65     0  02:43           0        1.93       0.447
  WS02006230           JUNCTION     10.28   160.43     0  02:41        0.29        1.29       0.367
  WS02006231           JUNCTION      0.00   152.27     0  02:38           0       0.999      -0.189
  WS02006232           JUNCTION      0.00   156.96     0  02:36           0           1       0.557
  WS02006234           JUNCTION      0.00   156.94     0  02:36           0       0.996      -0.809
  WS02006235           JUNCTION      0.00   179.21     0  02:49           0        1.22       0.735
  WS02006238           JUNCTION      0.00   124.31     0  02:49           0       0.431      -0.158
  WS02006240           JUNCTION      0.00    55.34     0  02:50           0        0.24       0.547
  WS02006242           JUNCTION      0.00    44.87     0  02:51           0       0.157       0.715
  WS02006243           JUNCTION      0.00    24.12     0  02:25           0       0.105       0.054
  WS02006245           JUNCTION      0.00    24.13     0  02:25           0      0.0962       0.749
  WS02006247           JUNCTION      0.00    24.16     0  02:24           0      0.0963       0.119
  WS02006248           JUNCTION      0.00    24.16     0  02:24           0      0.0963       0.036
  WS02006249           JUNCTION      0.00    24.22     0  02:22           0      0.0966       0.361
  WS02006239           JUNCTION      0.00    77.12     0  02:31           0       0.336      -0.022
  WS02006251           JUNCTION      0.08    24.26     0  02:21     0.00217      0.0967       0.076
  WS02006252           JUNCTION      0.00     0.00     0  00:00           0           0       0.000 ltr
  WS02006253           JUNCTION      0.90    24.20     0  02:21     0.00221      0.0947       0.163
  WS02006256           JUNCTION      0.00   300.00     0  02:30           0        1.87       0.583
  WS02004138           JUNCTION      0.00   285.00     0  02:10           0        6.22       0.062
  WS02004407           JUNCTION      0.00   244.34     0  02:45           0        1.85       0.102
  WS02006228           JUNCTION      0.00   258.24     0  02:41           0        1.93       0.354
  WS02006229           JUNCTION      0.00   259.34     0  02:39           0        1.94       0.550
  WS02006280           JUNCTION      0.00   130.26     0  02:22           0       0.655       0.011
  WS02006284           JUNCTION      0.10   130.26     0  02:22      0.0027       0.656       0.170
  WS02006287           JUNCTION      0.00   130.17     0  02:22           0       0.654       0.106
  WSF200               JUNCTION      0.00   231.60     0  02:48           0         1.8       0.072
  HS02004901           JUNCTION      7.17     7.17     0  02:12      0.0205      0.0206       9.312
  HS02004881           JUNCTION      2.87    23.53     0  02:21     0.00893      0.0926       0.064
  HS02004876           JUNCTION      4.48    20.94     0  02:21      0.0171      0.0841       0.619
  HS02004870           JUNCTION      5.03    16.59     0  02:21      0.0169      0.0672       0.158
  HS02004862           JUNCTION      4.11    11.95     0  02:21      0.0224      0.0505       0.330
  HS02004856           JUNCTION      3.72     7.89     0  02:20      0.0127      0.0295       5.123
  HS02004852           JUNCTION      0.00     4.45     0  02:21           0      0.0169       0.283
  HS02004848           JUNCTION      7.91     7.91     0  02:23      0.0398      0.0398       0.107
  HS02004842           JUNCTION      0.00     4.49     0  00:03           0      0.0359      56.735
  HS02004837           JUNCTION     14.33    17.64     0  02:18       0.208       0.231       0.342
  HS02004830           JUNCTION      0.15    17.78     0  02:20     0.00423       0.222       0.558
  HS02004824           JUNCTION      8.80    26.47     0  02:23      0.0523       0.273       0.198
  HS02004817           JUNCTION      0.60    27.07     0  02:23      0.0169       0.289       6.114
  HS02004807           JUNCTION      9.48    35.62     0  02:22       0.031       0.303       1.412
  HS02004802           JUNCTION      0.00    35.67     0  02:24           0       0.299       1.378
  HS02004799           JUNCTION      7.26    80.54     0  02:19      0.0251       0.321       0.702
  HS02004792           JUNCTION     32.79    73.56     0  02:19       0.113       0.297       0.141
  HS02004788           JUNCTION     11.49    42.89     0  02:20      0.0819       0.185       0.208
  HS02004785           JUNCTION      0.15    31.94     0  02:19     0.00423       0.105       0.456
  HS02004777           JUNCTION      0.03    32.37     0  02:18    0.000846       0.105       5.153
  HS02004770           JUNCTION     27.76    33.64     0  02:16      0.0874       0.106       3.002
  HS02004480           JUNCTION      0.00    94.81     0  02:21           0       0.371       0.185
  HS02004479           JUNCTION      0.00    14.61     0  02:22           0      0.0622       1.184
  HS02004478           JUNCTION      0.00   130.17     0  02:22           0       0.655       0.100
  YS02001745           JUNCTION     40.77    40.77     0  03:01       0.484       0.487       1.211
  YS02001748           JUNCTION      0.04    71.60     0  03:59     0.00127       0.495       4.149
  YS02001751           JUNCTION      0.01   100.13     0  03:59     0.00031       0.473       5.313
  YS02001754           JUNCTION      0.26   101.77     0  03:04     0.00733       0.457       5.970
  YS02001762           JUNCTION      0.00    77.82     0  03:15           0       0.495       4.785
  YS02001765           JUNCTION      0.00    82.98     0  03:14           0       0.499       5.363
  YS02001767           JUNCTION      0.54    71.24     0  04:09      0.0151       0.522       7.585
  YS02001770           JUNCTION     53.19    71.89     0  04:09       0.579       0.605       5.910
  YS02001774           JUNCTION      0.00    46.60     0  04:09           0      0.0929      40.249
  YS02001779           JUNCTION      0.01    42.91     0  04:09    0.000141      0.0408      64.566
  YS02001882           JUNCTION      0.00     2.60     0  02:12           0     0.00355      69.237
  YS02001884           JUNCTION      0.00     7.88     0  02:08           0      0.0144      43.650
  YS02001759           JUNCTION     52.25   127.77     0  03:16       0.543           1       2.499
  YS02001887           JUNCTION     69.89    69.89     0  02:45       0.663        0.67       1.000
  YS02001890           JUNCTION      0.00    69.49     0  02:49           0       0.651       1.133
  YS02001898           JUNCTION      0.00    69.20     0  02:50           0       0.641       0.284
  YS02001901           JUNCTION      0.00    69.21     0  02:50           0        0.64       0.786
  YS02001904           JUNCTION      0.00    68.93     0  02:51           0        0.64       0.733
  YS02001907           JUNCTION      0.00   124.72     0  02:58           0        1.36       1.582
  YS02001910           JUNCTION      0.00    56.46     0  03:00           0       0.733       1.315
  YS02001915           JUNCTION     36.77    56.19     0  03:01       0.418       0.737       0.538
  YS02001918           JUNCTION      0.00    19.56     0  03:03           0       0.319       0.265
  YS02001619           JUNCTION     35.67    35.67     0  03:00       0.411       0.411       3.081
  YS02001629           JUNCTION      0.00    52.66     0  04:09           0       0.333       9.483
  YS02001641           JUNCTION      0.00    74.99     0  03:10           0       0.697       3.312
  YS02001644           JUNCTION     38.69   106.42     0  02:56       0.464        1.13       2.433
  YS02001652           JUNCTION      0.00    62.19     0  03:06           0       0.435       6.010
  YS02001655           JUNCTION      0.15    98.00     0  03:57     0.00434        0.46       5.727
  YS02001920           JUNCTION      2.87    19.58     0  03:02      0.0809       0.321       0.541
  YS02001923           JUNCTION      0.04    16.71     0  03:02     0.00106        0.24       0.095
  YS02001926           JUNCTION      0.05    16.71     0  03:01     0.00147       0.241       0.690
  YS02001929           JUNCTION     16.67    16.67     0  03:01       0.239       0.239       0.090
  YS02001658           JUNCTION      0.00    70.15     0  03:58           0       0.478       4.355
  YS02001661           JUNCTION      0.00    49.15     0  02:47           0       0.481       2.468
  YS02001664           JUNCTION     49.15    49.15     0  02:47       0.479       0.479       0.024
  YS02001622           JUNCTION      0.00    43.92     0  04:10           0         0.4       8.656
  YS02001633           JUNCTION     39.35    74.54     0  02:38       0.479       0.758       4.549
  YS02001649           JUNCTION      0.00   194.47     0  03:19           0        1.47       2.731
  YS02001757           JUNCTION      0.00   368.17     0  03:06           0         2.8       3.489
  YS02001895           JUNCTION      0.00    69.29     0  02:49           0       0.644       0.500
  YS02001625           JUNCTION      0.00    60.38     0  04:10           0       0.372      11.896
  YS02163301           JUNCTION      0.00    49.14     0  04:15           0       0.306       9.112
  YS02163601           JUNCTION      0.11    75.69     0  02:38      0.0031       0.724       4.494
  YS02164001           JUNCTION      0.00    74.28     0  03:10           0       0.702       3.296
  YS02001647           JUNCTION      0.00   111.15     0  03:05           0        1.09       2.821
  YSB1154              JUNCTION      7.96     7.96     0  02:17      0.0304      0.0318       4.761
  YSB6556              JUNCTION      0.00     7.84     0  02:20           0      0.0328       3.938
  YSB1174              JUNCTION      8.21     8.21     0  02:12      0.0222      0.0232       5.852
  YSB1171              JUNCTION      0.00    14.63     0  02:19           0      0.0616      11.424
  YS02006553           JUNCTION      0.00   124.87     0  03:02           0        1.35       1.030
  YS02006561           JUNCTION      0.00   183.07     0  02:56           0        1.91       0.028
  YS02006556           JUNCTION      0.00   125.02     0  03:02           0        1.35       0.738
  YS02006558           JUNCTION     58.92   183.08     0  02:56       0.604        1.93       0.224
  YS02001783           JUNCTION      0.00   183.06     0  02:56           0        1.91       0.065
  YS02001784           JUNCTION      1.06   184.12     0  02:57      0.0299        1.94       0.109
  YS02001786           JUNCTION      0.06   184.17     0  02:57     0.00159        1.93       0.105
  YS02001788           JUNCTION      0.07   184.23     0  02:58       0.002        1.93       0.060
  YS02001790           JUNCTION      0.15   184.38     0  02:58     0.00437        1.94       0.077
  YS02001791           JUNCTION      0.00   184.38     0  02:58           0        1.94       0.031
  YS02001793           JUNCTION      0.00   393.08     0  02:51           0        1.96       0.379
  WS02004139           JUNCTION      0.32   286.39     0  07:46     0.00905        6.23       0.569
  WSC                  OUTFALL       0.00   537.42     0  02:51           0        8.53       0.000
  3                    OUTFALL       0.00   252.91     0  02:30           0       0.925       0.000
  4                    OUTFALL       0.00     0.00     0  00:00           0           0       0.000 ltr
  5                    OUTFALL       0.00     0.00     0  00:00           0           0       0.000 ltr
  JK-storage           STORAGE       0.00   733.91     0  02:51           0        2.11       0.513
  CC-storage           STORAGE       0.00   277.21     0  02:59           0        2.69       2.039
  XR-storage           STORAGE     266.77   266.77     0  02:53        6.45        7.05       0.000
  
  
  **********************
  Node Surcharge Summary
  **********************
  
  Surcharging occurs when water rises above the top of the highest conduit.
  ---------------------------------------------------------------------
                                               Max. Height   Min. Depth
                                   Hours       Above Crown    Below Rim
  Node                 Type      Surcharged         Meters       Meters
  ---------------------------------------------------------------------
  YS02001751           JUNCTION        0.77          0.068        1.132
  YS02001754           JUNCTION        2.60          0.289        0.861
  YS02001762           JUNCTION        3.99          0.547        0.603
  YS02001765           JUNCTION        3.74          0.497        0.603
  YS02001767           JUNCTION        3.57          0.458        0.572
  YS02001770           JUNCTION        3.38          0.422        0.498
  YS02001774           JUNCTION        3.89          0.525        0.525
  YS02001779           JUNCTION        2.41          0.261        0.419
  YS02001759           JUNCTION        4.16          0.583        0.627
  YS02001619           JUNCTION        0.23          0.018        0.592
  YS02001629           JUNCTION        0.23          0.018        0.452
  YS02001641           JUNCTION        3.81          0.511        0.589
  YS02001644           JUNCTION        3.84          0.516        0.404
  YS02001652           JUNCTION        2.80          0.321        0.809
  YS02001655           JUNCTION        1.06          0.097        1.103
  YS02001622           JUNCTION        0.49          0.043        0.577
  YS02001633           JUNCTION        3.63          0.474        0.586
  YS02001649           JUNCTION        4.04          0.557        0.493
  YS02001757           JUNCTION        4.63          0.686        0.524
  YS02001625           JUNCTION        2.95          0.343        0.437
  YS02163301           JUNCTION        3.44          0.431        0.599
  YS02163601           JUNCTION        4.01          0.550        0.530
  YS02164001           JUNCTION        3.71          0.490        0.610
  YS02001647           JUNCTION        2.90          0.338        0.562
  
  
  *********************
  Node Flooding Summary
  *********************
  
  No nodes were flooded.
  
  
  **********************
  Storage Volume Summary
  **********************
  
  --------------------------------------------------------------------------------------------------
                         Average     Avg  Evap Exfil       Maximum     Max    Time of Max    Maximum
                          Volume    Pcnt  Pcnt  Pcnt        Volume    Pcnt     Occurrence    Outflow
  Storage Unit           1000 m3    Full  Loss  Loss       1000 m3    Full    days hr:min        LPS
  --------------------------------------------------------------------------------------------------
  JK-storage               0.192      66     0     0         0.230      79       0  03:47     500.51
  CC-storage               1.140       7     0     0         2.638      17       0  07:50       0.00
  XR-storage               0.794      86     0     0         0.840      91       0  03:27     285.00
  
  
  ***********************
  Outfall Loading Summary
  ***********************
  
  -----------------------------------------------------------
                         Flow       Avg       Max       Total
                         Freq      Flow      Flow      Volume
  Outfall Node           Pcnt       LPS       LPS    10^6 ltr
  -----------------------------------------------------------
  WSC                   99.99    351.65    537.42       8.529
  3                     59.71    152.30    252.91       0.925
  4                      0.00      0.00      0.00       0.000
  5                      0.00      0.00      0.00       0.000
  -----------------------------------------------------------
  System                39.93    503.95    760.63       9.453
  
  
  ********************
  Link Flow Summary
  ********************
  
  -----------------------------------------------------------------------------
                                 Maximum  Time of Max   Maximum    Max/    Max/
                                  |Flow|   Occurrence   |Veloc|    Full    Full
  Link                 Type          LPS  days hr:min     m/sec    Flow   Depth
  -----------------------------------------------------------------------------
  WS02003066WSF200     CONDUIT    231.60     0  02:48      2.30    0.04    0.14
  WS02006287WS02006284 CONDUIT    130.16     0  02:22      1.38    0.06    0.18
  WS02006284WS02006280 CONDUIT    130.26     0  02:22      1.63    0.05    0.16
  WS02006280WS02006229 CONDUIT    130.26     0  02:22      2.61    0.03    0.11
  WS02006229WS02006228 CONDUIT    258.24     0  02:41      0.60    0.86    0.80
  WS02006256WS02006235 CONDUIT    166.35     0  04:29      2.56    1.76    1.00
  WS02006253WS02006251 CONDUIT     24.18     0  02:21      0.41    0.07    0.21
  WS02006252WS02006251 CONDUIT      0.00     0  00:00      0.00    0.00    0.00
  WS02006251WS02006249 CONDUIT     24.22     0  02:22      0.45    0.07    0.20
  WS02006249WS02006248 CONDUIT     24.16     0  02:24      0.53    0.13    0.18
  WS02006248WS02006247 CONDUIT     24.16     0  02:24      0.52    0.05    0.18
  WS02006247WS02006245 CONDUIT     24.13     0  02:25      0.47    0.19    0.19
  WS02006245WS02006243 CONDUIT     24.12     0  02:25      0.60    0.07    0.18
  WS02006243WS02006242 CONDUIT     31.33     0  02:43      0.48    0.07    0.29
  WS02006242WS02006240 CONDUIT     46.27     0  02:43      0.50    0.18    0.40
  WS02006240WS02006239 CONDUIT     61.79     0  02:42      0.59    0.19    0.41
  WS02006239WS02006238 CONDUIT     94.59     0  02:41      0.66    0.30    0.53
  WS02006238WS02006235 CONDUIT    130.82     0  02:42      1.08    0.29    0.58
  WS02006235WS02006234 CONDUIT    156.94     0  02:36      0.93    1.66    0.52
  WS02006234WS02006232 CONDUIT    156.96     0  02:36      0.82    0.32    0.60
  WS02006232WS02006231 CONDUIT    152.27     0  02:38      0.68    0.32    0.58
  WS02006231WS02006230 CONDUIT    150.15     0  02:41      0.98    2.28    0.42
  WS02006230WS02006229 CONDUIT    160.68     0  02:41      0.51    3.58    0.85
  WS02006228WS02006109 CONDUIT    257.89     0  02:41      0.57    1.13    0.84
  WS02006116WS02004401 CONDUIT    252.16     0  02:43      0.52    0.35    0.60
  WS02006115WS02006116 CONDUIT    254.65     0  02:43      0.64    0.33    0.51
  WS02006113WS02006111 CONDUIT    260.49     0  02:42      1.92    0.31    0.31
  WS02006112WS02006115 CONDUIT    258.44     0  02:42      0.50    0.15    0.63
  WS02006111WS02006112 CONDUIT    258.47     0  02:42      0.85    0.12    0.59
  WS02006110WS02006113 CONDUIT    258.63     0  02:42      0.78    0.24    0.63
  WS02006109WS02006110 CONDUIT    258.84     0  02:42      0.60    0.50    0.80
  WS02004411WS02004412 CONDUIT    235.55     0  02:46      0.79    0.33    0.48
  WS02004401WS02004402 CONDUIT    249.44     0  02:43      0.48    0.30    0.63
  WS02004413WS02003067 CONDUIT    231.66     0  02:47      0.70    0.10    0.44
  WS02004412WS02004413 CONDUIT    233.49     0  02:47      0.73    0.16    0.58
  WS02004410WS02004411 CONDUIT    238.12     0  02:46      0.68    0.33    0.46
  WS02004409WS02004410 CONDUIT    241.17     0  02:46      0.74    0.31    0.43
  WS02004407WS02004409 CONDUIT    244.02     0  02:45      1.18    0.09    0.31
  WS02004406WS02004407 CONDUIT    244.34     0  02:45      0.65    0.11    0.48
  WS02004405WS02004406 CONDUIT    245.17     0  02:44      0.38    0.48    0.76
  WS02004404WS02004405 CONDUIT    246.12     0  02:44      0.39    2.41    0.75
  WS02004403WS02004404 CONDUIT    246.78     0  02:44      0.41    0.18    0.72
  WS02004402WS02004403 CONDUIT    247.94     0  02:44      0.45    0.36    0.66
  WS02004139WS02001211 CONDUIT    287.25     0  07:47      0.54    0.36    0.51
  WS02004138WS02004139 CONDUIT    286.07     0  07:46      2.39    0.06    0.38
  WS02003067WS02003066 CONDUIT    231.64     0  02:48      0.75    0.07    0.32
  WS02001213WS02003059 CONDUIT    295.13     0  02:57      0.59    0.49    0.65
  WS02001212WS02001213 CONDUIT    294.12     0  02:58      1.19    0.45    0.36
  WS02001211WS02001212 CONDUIT    293.62     0  02:58      0.67    0.22    0.55
  WS02003072WS02003073 CONDUIT    535.86     0  02:50      1.42    1.16    0.37
  WS02003069WS02003072 CONDUIT    535.88     0  02:50      1.36    0.26    0.38
  WS02003060WS02003069 CONDUIT    535.64     0  02:49      1.63    0.21    0.33
  WS02003059WS02003060 CONDUIT    296.61     0  02:57      0.82    0.19    0.53
  HS02004901HS02004770 CONDUIT      6.32     0  02:18      0.03    0.02    0.27
  HS02004876HS02004881 CONDUIT     20.95     0  02:21      0.40    0.22    0.07
  HS02004870HS02004876 CONDUIT     16.57     0  02:21      0.28    0.01    0.08
  HS02004842HS02004848 CONDUIT      3.70     0  02:32      0.02    0.00    0.26
  HS02004837HS02004842 CONDUIT      4.49     0  00:03      0.42    0.00    0.28
  HS02004830HS02004837 CONDUIT     17.63     0  02:20      0.39    0.02    0.06
  HS02004824HS02004830 CONDUIT     17.78     0  02:20      0.43    0.02    0.06
  HS02004817HS02004824 CONDUIT     26.47     0  02:23      0.17    0.01    0.37
  HS02004770HS02004777 CONDUIT     32.34     0  02:18      0.17    0.06    0.28
  HS02004799HS02004480 CONDUIT     80.38     0  02:20      0.46    0.10    0.25
  HS02004792HS02004799 CONDUIT     73.52     0  02:20      0.54    0.05    0.20
  HS02004788HS02004792 CONDUIT     42.85     0  02:21      0.70    0.03    0.09
  HS02004785HS02004788 CONDUIT     31.80     0  02:21      0.41    0.24    0.11
  HS02004777HS02004785 CONDUIT     31.79     0  02:19      0.20    0.04    0.23
  HS02004480HS02004478 CONDUIT     94.79     0  02:21      0.79    0.40    0.17
  HS02004479HS02004480 CONDUIT     14.75     0  02:23      0.15    0.01    0.25
  HS02004862HS02004870 CONDUIT     11.91     0  02:22      0.38    0.01    0.04
  HS02004848HS02004852 CONDUIT      4.45     0  02:21      0.25    0.01    0.03
  HS02004856HS02004862 CONDUIT      7.87     0  02:22      0.27    0.01    0.04
  HS02004852HS02004856 CONDUIT      4.41     0  02:23      0.08    0.01    0.08
  HS02004802HS02004478 CONDUIT     35.84     0  02:25      0.24    0.03    0.21
  HS02004478WS02006287 CONDUIT    130.17     0  02:22      1.07    0.04    0.14
  HS02004817HS02004807 CONDUIT     27.30     0  02:26      0.08    0.02    0.47
  HS02004807HS02004802 CONDUIT     35.67     0  02:24      0.20    0.07    0.26
  YS02001759YS02001757 CONDUIT    112.16     0  02:58      0.15    0.08    1.00
  YS02001762YS02001759 CONDUIT     82.49     0  03:16      0.17    0.10    1.00
  YS02001765YS02001762 CONDUIT     77.82     0  03:15      0.22    0.07    1.00
  YS02001770YS02001767 CONDUIT     70.71     0  04:09      0.32    0.28    1.00
  YS02001774YS02001770 CONDUIT     46.60     0  04:09      0.13    0.03    1.00
  YS02001779YS02001774 CONDUIT     42.90     0  04:09      0.07    0.02    1.00
  YS02001649YS02001757 CONDUIT    161.22     0  03:04      0.22    0.10    1.00
  YS02001767YS02001765 CONDUIT     82.98     0  03:14      0.26    0.10    1.00
  YS02006561YS02001783 CONDUIT    183.06     0  02:56      1.55    0.09    0.29
  YS02001783YS02001784 CONDUIT    183.06     0  02:57      1.03    0.25    0.38
  YS02001784YS02001785 CONDUIT    184.11     0  02:57      1.08    0.43    0.37
  YS02001788YS02001790 CONDUIT    184.23     0  02:58      1.63    0.14    0.28
  YS02001790YS02001791 CONDUIT    184.38     0  02:58      1.90    0.20    0.25
  YS02001791YS02001793 CONDUIT    196.62     0  02:52      3.73    0.08    0.45
  YS02001910YS02001907 CONDUIT     56.53     0  03:01      0.49    0.03    0.63
  YS02001786YS02001788 CONDUIT    184.16     0  02:58      1.48    0.35    0.30
  YS02001915YS02001910 CONDUIT     56.46     0  03:00      0.44    0.03    0.42
  YS02001918YS02001915 CONDUIT     19.55     0  03:04      0.44    0.01    0.19
  YS02001923YS02001920 CONDUIT     16.71     0  03:02      0.33    0.01    0.11
  YS02001926YS02001923 CONDUIT     16.67     0  03:02      0.39    0.02    0.10
  YS02001929YS02001926 CONDUIT     16.66     0  03:01      0.41    0.01    0.10
  YS02001920YS02001918 CONDUIT     19.56     0  03:03      0.36    0.02    0.12
  YS02001629YS02163301 CONDUIT     48.04     0  04:14      0.09    0.06    1.00
  YS02001619YS02001622 CONDUIT     43.92     0  04:10      0.57    0.06    1.00
  YS02001622YS02001625 CONDUIT     43.44     0  04:10      0.19    0.02    1.00
  YS02001625YS02001629 CONDUIT     52.66     0  04:09      0.19    0.03    1.00
  YS02163301YS02001633 CONDUIT     45.15     0  04:15      0.10    0.04    1.00
  YS02163601YS02164001 CONDUIT     74.28     0  03:10      0.11    0.07    1.00
  YS02164001YS02001641 CONDUIT     74.99     0  03:10      0.11    0.10    1.00
  YS02001641YS02001644 CONDUIT     67.86     0  02:56      0.13    0.22    1.00
  YS02001647YS02001649 CONDUIT    113.55     0  03:09      0.18    0.06    1.00
  YS02006553YS02006556 CONDUIT    125.02     0  03:02      0.21    0.11    0.72
  YS02006556YS02006558 CONDUIT    125.12     0  03:02      0.20    0.10    0.74
  YSB6556YSB1171       CONDUIT      7.92     0  02:23      0.04    0.01    0.51
  YS02001907YS02006553 CONDUIT    124.87     0  03:02      0.17    0.15    0.81
  YS02006558YS02006561 CONDUIT    183.07     0  02:56      2.00    0.40    0.36
  YS02001633YS02163601 CONDUIT     75.58     0  02:38      0.13    0.08    1.00
  YS02001644YS02001647 CONDUIT    111.15     0  03:05      0.19    0.07    1.00
  YS02001745YS02001748 CONDUIT     50.38     0  05:42      1.22    0.02    0.61
  YS02001748YS02001751 CONDUIT    100.11     0  03:59      0.96    0.05    0.93
  YS02001751YS02001754 CONDUIT     78.85     0  03:08      0.89    0.04    1.00
  YS02001754YS02001757 CONDUIT    104.10     0  03:04      0.33    0.04    1.00
  YS02001882YS02001884 CONDUIT      2.60     0  02:12      0.06    0.00    0.36
  YS02001884YS02001887 CONDUIT      7.88     0  02:08      0.06    0.01    0.45
  YS02001890YS02001895 CONDUIT     69.29     0  02:49      0.22    0.03    0.42
  YS02001895YS02001898 CONDUIT     69.20     0  02:50      0.44    0.12    0.29
  YS02001898YS02001901 CONDUIT     69.21     0  02:50      0.27    0.04    0.36
  YS02001901YS02001904 CONDUIT     68.93     0  02:51      0.22    0.11    0.42
  YS02001904YS02001907 CONDUIT     69.03     0  02:53      0.15    0.02    0.58
  YS02001887YS02001890 CONDUIT     69.49     0  02:49      0.18    0.12    0.51
  YS02001652YS02001649 CONDUIT     88.43     0  03:19      0.30    0.04    1.00
  YS02001655YS02001652 CONDUIT     62.19     0  03:06      0.95    0.03    1.00
  YS02001658YS02001655 CONDUIT     97.85     0  03:57      1.11    0.04    0.90
  YS02001661YS02001658 CONDUIT     49.15     0  02:47      1.24    0.02    0.64
  YS02001664YS02001661 CONDUIT     49.15     0  02:47      0.85    0.02    0.29
  YSB1154YSB6556       CONDUIT      7.84     0  02:20      0.19    0.01    0.40
  YSB1174YSB1171       CONDUIT      7.45     0  02:13      0.04    0.01    0.52
  YSB1171HS02004479    CONDUIT     14.61     0  02:22      0.54    0.01    0.40
  HS02004881HS02006253 CONDUIT     23.53     0  02:21      1.37    0.00    0.02
  YS02001793JiankangQianchi CONDUIT    733.91     0  02:51      1.54    0.06    0.79
  YS02001757CaochengTiaoxuchi CONDUIT    277.21     0  02:59      0.65    0.12    0.97
  WSF200WS02003060     CONDUIT    231.55     0  02:48      1.15    0.05    0.23
  1                    CONDUIT    537.42     0  02:51      2.80    0.19    0.29
  2                    CONDUIT      0.00     0  00:00      0.00    0.00    0.00
  3                    CONDUIT    252.91     0  02:30      8.30    0.40    0.47
  4                    CONDUIT      0.00     0  00:00      0.00    0.00    0.00
  CC-Pump-1            PUMP         0.00     0  00:00              0.00
  CC-Pump-2            PUMP         0.00     0  00:00              0.00
  JK-Pump-1            PUMP       300.00     0  02:30              1.00
  JK-Pump-2            PUMP         0.00     0  00:00              0.00
  XR-Pump-1            PUMP        95.00     0  00:00              1.00
  XR-Pump-2            PUMP        95.00     0  00:25              1.00
  XR-Pump-3            PUMP        95.00     0  02:10              1.00
  XR-Pump-4            PUMP         0.00     0  00:00              0.00
  
  
  ***************************
  Flow Classification Summary
  ***************************
  
  -------------------------------------------------------------------------------------
                      Adjusted    ---------- Fraction of Time in Flow Class ---------- 
                       /Actual         Up    Down  Sub   Sup   Up    Down  Norm  Inlet 
  Conduit               Length    Dry  Dry   Dry   Crit  Crit  Crit  Crit  Ltd   Ctrl  
  -------------------------------------------------------------------------------------
  WS02003066WSF200        1.00   0.15  0.00  0.00  0.00  0.85  0.00  0.00  0.68  0.00
  WS02006287WS02006284    1.00   0.04  0.04  0.00  0.63  0.29  0.00  0.00  0.80  0.00
  WS02006284WS02006280    1.00   0.06  0.00  0.00  0.00  0.00  0.00  0.94  0.00  0.00
  WS02006280WS02006229    1.00   0.06  0.00  0.00  0.00  0.00  0.00  0.94  0.00  0.00
  WS02006229WS02006228    1.00   0.00  0.00  0.00  1.00  0.00  0.00  0.00  0.00  0.00
  WS02006256WS02006235    1.00   0.09  0.00  0.00  0.84  0.07  0.00  0.00  0.05  0.00
  WS02006253WS02006251    1.00   0.02  0.03  0.00  0.95  0.00  0.01  0.00  0.00  0.00
  WS02006252WS02006251    1.00   1.00  0.00  0.00  0.00  0.00  0.00  0.00  0.00  0.00
  WS02006251WS02006249    1.00   0.00  0.00  0.00  1.00  0.00  0.00  0.00  0.98  0.00
  WS02006249WS02006248    1.00   0.00  0.01  0.00  0.00  0.00  0.99  0.00  0.00  0.00
  WS02006248WS02006247    1.00   0.01  0.00  0.00  0.97  0.00  0.00  0.02  0.87  0.00
  WS02006247WS02006245    1.00   0.01  0.00  0.00  0.95  0.00  0.00  0.04  0.00  0.00
  WS02006245WS02006243    1.00   0.01  0.00  0.00  0.85  0.00  0.00  0.14  0.11  0.00
  WS02006243WS02006242    1.00   0.02  0.00  0.00  0.93  0.00  0.00  0.06  0.60  0.00
  WS02006242WS02006240    1.00   0.02  0.05  0.00  0.92  0.00  0.01  0.00  0.01  0.00
  WS02006240WS02006239    1.00   0.08  0.00  0.00  0.78  0.00  0.00  0.15  0.09  0.00
  WS02006239WS02006238    1.00   0.08  0.00  0.00  0.91  0.00  0.00  0.02  0.05  0.00
  WS02006238WS02006235    1.00   0.08  0.01  0.00  0.91  0.00  0.00  0.00  0.00  0.00
  WS02006235WS02006234    1.00   0.10  0.01  0.00  0.79  0.00  0.10  0.00  0.00  0.00
  WS02006234WS02006232    1.00   0.11  0.00  0.00  0.89  0.00  0.00  0.00  0.02  0.00
  WS02006232WS02006231    1.00   0.11  0.02  0.00  0.85  0.00  0.02  0.00  0.01  0.00
  WS02006231WS02006230    1.00   0.13  0.00  0.00  0.04  0.00  0.84  0.00  0.00  0.00
  WS02006230WS02006229    1.00   0.00  0.00  0.00  0.99  0.00  0.00  0.01  0.03  0.00
  WS02006228WS02006109    1.00   0.00  0.00  0.00  1.00  0.00  0.00  0.00  0.00  0.00
  WS02006116WS02004401    1.00   0.05  0.00  0.00  0.95  0.00  0.00  0.00  0.01  0.00
  WS02006115WS02006116    1.00   0.05  0.00  0.00  0.91  0.00  0.00  0.05  0.00  0.00
  WS02006113WS02006111    1.00   0.03  0.00  0.00  0.01  0.96  0.00  0.00  0.10  0.00
  WS02006112WS02006115    1.00   0.03  0.02  0.00  0.95  0.00  0.00  0.00  0.00  0.00
  WS02006111WS02006112    1.00   0.03  0.00  0.00  0.97  0.00  0.00  0.00  0.92  0.00
  WS02006110WS02006113    1.00   0.00  0.02  0.00  0.97  0.00  0.00  0.00  0.00  0.00
  WS02006109WS02006110    1.00   0.00  0.00  0.00  0.99  0.00  0.01  0.00  0.00  0.00
  WS02004411WS02004412    1.00   0.12  0.00  0.00  0.88  0.00  0.00  0.00  0.00  0.00
  WS02004401WS02004402    1.00   0.05  0.00  0.00  0.95  0.00  0.00  0.00  0.04  0.00
  WS02004413WS02003067    1.00   0.13  0.02  0.00  0.00  0.00  0.85  0.00  0.00  0.00
  WS02004412WS02004413    1.00   0.13  0.00  0.00  0.87  0.00  0.00  0.00  0.00  0.00
  WS02004410WS02004411    1.00   0.12  0.00  0.00  0.88  0.00  0.00  0.00  0.00  0.00
  WS02004409WS02004410    1.00   0.12  0.00  0.00  0.88  0.00  0.00  0.00  0.00  0.00
  WS02004407WS02004409    1.00   0.12  0.00  0.00  0.87  0.01  0.00  0.00  0.72  0.00
  WS02004406WS02004407    1.00   0.00  0.12  0.00  0.88  0.00  0.00  0.00  0.00  0.00
  WS02004405WS02004406    1.00   0.00  0.00  0.00  1.00  0.00  0.00  0.00  0.04  0.00
  WS02004404WS02004405    1.00   0.00  0.00  0.00  1.00  0.00  0.00  0.00  0.01  0.00
  WS02004403WS02004404    1.00   0.00  0.05  0.00  0.95  0.00  0.00  0.00  0.04  0.00
  WS02004402WS02004403    1.00   0.05  0.00  0.00  0.95  0.00  0.00  0.00  0.00  0.00
  WS02004139WS02001211    1.00   0.00  0.00  0.00  1.00  0.00  0.00  0.00  0.00  0.00
  WS02004138WS02004139    1.00   0.00  0.00  0.00  1.00  0.00  0.00  0.00  1.00  0.00
  WS02003067WS02003066    1.00   0.15  0.01  0.00  0.85  0.00  0.00  0.00  0.00  0.00
  WS02001213WS02003059    1.00   0.00  0.00  0.00  1.00  0.00  0.00  0.00  0.00  0.00
  WS02001212WS02001213    1.00   0.00  0.00  0.00  0.11  0.00  0.88  0.00  0.00  0.00
  WS02001211WS02001212    1.00   0.00  0.00  0.00  1.00  0.00  0.00  0.00  0.00  0.00
  WS02003072WS02003073    1.00   0.00  0.00  0.00  0.00  0.00  0.00  1.00  0.00  0.00
  WS02003069WS02003072    1.00   0.00  0.00  0.00  1.00  0.00  0.00  0.00  0.74  0.00
  WS02003060WS02003069    1.00   0.00  0.00  0.00  0.99  0.01  0.00  0.00  0.41  0.00
  WS02003059WS02003060    1.00   0.00  0.00  0.00  1.00  0.00  0.00  0.00  0.02  0.00
  HS02004901HS02004770    1.00   0.05  0.00  0.00  0.94  0.00  0.00  0.00  0.03  0.00
  HS02004876HS02004881    1.00   0.01  0.00  0.00  0.99  0.00  0.00  0.00  0.00  0.00
  HS02004870HS02004876    1.00   0.00  0.00  0.00  0.99  0.00  0.00  0.00  0.95  0.00
  HS02004842HS02004848    1.00   0.00  0.06  0.00  0.94  0.00  0.00  0.00  0.71  0.00
  HS02004837HS02004842    1.00   0.00  0.00  0.00  1.00  0.00  0.00  0.00  0.11  0.00
  HS02004830HS02004837    1.00   0.00  0.00  0.00  1.00  0.00  0.00  0.00  0.99  0.00
  HS02004824HS02004830    1.00   0.00  0.00  0.00  1.00  0.00  0.00  0.00  0.00  0.00
  HS02004817HS02004824    1.00   0.00  0.00  0.00  1.00  0.00  0.00  0.00  1.00  0.00
  HS02004770HS02004777    1.00   0.00  0.06  0.00  0.94  0.00  0.00  0.00  0.08  0.00
  HS02004799HS02004480    1.00   0.00  0.01  0.00  0.91  0.00  0.07  0.00  0.00  0.00
  HS02004792HS02004799    1.00   0.00  0.00  0.00  1.00  0.00  0.00  0.00  0.98  0.00
  HS02004788HS02004792    1.00   0.00  0.00  0.00  1.00  0.00  0.00  0.00  0.98  0.00
  HS02004785HS02004788    1.00   0.00  0.00  0.00  1.00  0.00  0.00  0.00  0.00  0.00
  HS02004777HS02004785    1.00   0.00  0.00  0.00  1.00  0.00  0.00  0.00  0.22  0.00
  HS02004480HS02004478    1.00   0.07  0.00  0.00  0.65  0.00  0.00  0.29  0.00  0.00
  HS02004479HS02004480    1.00   0.02  0.00  0.00  0.98  0.00  0.00  0.00  0.16  0.00
  HS02004862HS02004870    1.00   0.00  0.00  0.00  1.00  0.00  0.00  0.00  0.05  0.00
  HS02004848HS02004852    1.00   0.06  0.00  0.00  0.94  0.00  0.00  0.00  0.70  0.00
  HS02004856HS02004862    1.00   0.00  0.11  0.00  0.89  0.00  0.00  0.00  0.73  0.00
  HS02004852HS02004856    1.00   0.06  0.02  0.00  0.93  0.00  0.00  0.00  0.82  0.00
  HS02004802HS02004478    1.00   0.06  0.02  0.00  0.93  0.00  0.00  0.00  0.00  0.00
  HS02004478WS02006287    1.00   0.08  0.00  0.00  0.92  0.00  0.00  0.00  0.81  0.00
  HS02004817HS02004807    1.00   0.00  0.06  0.00  0.94  0.00  0.00  0.00  0.00  0.00
  HS02004807HS02004802    1.00   0.06  0.00  0.00  0.94  0.00  0.00  0.00  0.01  0.00
  YS02001759YS02001757    1.00   0.00  0.00  0.00  1.00  0.00  0.00  0.00  0.17  0.00
  YS02001762YS02001759    1.00   0.00  0.00  0.00  1.00  0.00  0.00  0.00  0.05  0.00
  YS02001765YS02001762    1.00   0.00  0.00  0.00  1.00  0.00  0.00  0.00  0.23  0.00
  YS02001770YS02001767    1.00   0.00  0.00  0.00  1.00  0.00  0.00  0.00  0.00  0.00
  YS02001774YS02001770    1.00   0.00  0.08  0.00  0.92  0.00  0.00  0.00  0.07  0.00
  YS02001779YS02001774    1.00   0.00  0.00  0.00  1.00  0.00  0.00  0.00  0.28  0.00
  YS02001649YS02001757    1.00   0.00  0.00  0.00  1.00  0.00  0.00  0.00  0.19  0.00
  YS02001767YS02001765    1.00   0.00  0.00  0.00  1.00  0.00  0.00  0.00  0.01  0.00
  YS02006561YS02001783    1.00   0.12  0.00  0.00  0.00  0.88  0.00  0.00  0.72  0.00
  YS02001783YS02001784    1.00   0.00  0.12  0.00  0.88  0.00  0.00  0.00  0.08  0.00
  YS02001784YS02001785    1.00   0.00  0.00  0.00  1.00  0.00  0.00  0.00  0.26  0.00
  YS02001788YS02001790    1.00   0.00  0.00  0.00  0.12  0.88  0.00  0.00  0.99  0.00
  YS02001790YS02001791    1.00   0.00  0.00  0.00  0.01  0.99  0.00  0.00  0.38  0.00
  YS02001791YS02001793    1.00   0.00  0.00  0.00  0.19  0.81  0.00  0.00  0.26  0.00
  YS02001910YS02001907    1.00   0.00  0.00  0.00  0.99  0.00  0.00  0.01  0.13  0.00
  YS02001786YS02001788    1.00   0.00  0.00  0.00  0.13  0.87  0.00  0.00  0.00  0.00
  YS02001915YS02001910    1.00   0.00  0.00  0.00  0.99  0.01  0.00  0.00  0.25  0.00
  YS02001918YS02001915    1.00   0.00  0.00  0.00  0.99  0.01  0.00  0.00  0.80  0.00
  YS02001923YS02001920    1.00   0.00  0.00  0.00  1.00  0.00  0.00  0.00  1.00  0.00
  YS02001926YS02001923    1.00   0.00  0.03  0.00  0.00  0.00  0.97  0.00  0.00  0.00
  YS02001929YS02001926    1.00   0.00  0.06  0.00  0.94  0.00  0.00  0.00  0.86  0.00
  YS02001920YS02001918    1.00   0.00  0.00  0.00  1.00  0.00  0.00  0.00  0.00  0.00
  YS02001629YS02163301    1.00   0.10  0.01  0.00  0.89  0.00  0.00  0.00  0.00  0.00
  YS02001619YS02001622    1.00   0.05  0.00  0.00  0.95  0.00  0.00  0.00  0.00  0.00
  YS02001622YS02001625    1.00   0.06  0.00  0.00  0.94  0.00  0.00  0.00  0.14  0.00
  YS02001625YS02001629    1.00   0.06  0.06  0.00  0.85  0.00  0.03  0.00  0.00  0.00
  YS02163301YS02001633    1.00   0.00  0.10  0.00  0.90  0.00  0.00  0.00  0.00  0.00
  YS02163601YS02164001    1.00   0.00  0.03  0.00  0.97  0.00  0.00  0.00  0.00  0.00
  YS02164001YS02001641    1.00   0.00  0.03  0.00  0.97  0.00  0.00  0.00  0.07  0.00
  YS02001641YS02001644    1.00   0.00  0.00  0.00  1.00  0.00  0.00  0.00  0.00  0.00
  YS02001647YS02001649    1.00   0.00  0.11  0.00  0.89  0.00  0.00  0.00  0.01  0.00
  YS02006553YS02006556    1.00   0.01  0.00  0.00  0.99  0.00  0.00  0.00  0.03  0.00
  YS02006556YS02006558    1.00   0.00  0.00  0.00  1.00  0.00  0.00  0.00  0.00  0.00
  YSB6556YSB1171          1.00   0.02  0.04  0.00  0.95  0.00  0.00  0.00  0.00  0.00
  YS02001907YS02006553    1.00   0.00  0.01  0.00  0.99  0.00  0.00  0.00  0.00  0.00
  YS02006558YS02006561    1.00   0.12  0.00  0.00  0.00  0.88  0.00  0.00  0.71  0.00
  YS02001633YS02163601    1.00   0.00  0.00  0.00  1.00  0.00  0.00  0.00  0.20  0.00
  YS02001644YS02001647    1.00   0.00  0.11  0.00  0.89  0.00  0.00  0.00  0.00  0.00
  YS02001745YS02001748    1.00   0.00  0.00  0.00  0.62  0.06  0.00  0.31  0.22  0.00
  YS02001748YS02001751    1.00   0.00  0.00  0.00  0.95  0.05  0.00  0.00  0.27  0.00
  YS02001751YS02001754    1.00   0.00  0.00  0.00  0.87  0.00  0.00  0.13  0.02  0.00
  YS02001754YS02001757    1.00   0.00  0.00  0.00  1.00  0.00  0.00  0.00  0.27  0.00
  YS02001882YS02001884    1.00   0.09  0.01  0.00  0.90  0.00  0.00  0.00  0.00  0.00
  YS02001884YS02001887    1.00   0.03  0.02  0.00  0.95  0.00  0.00  0.00  0.00  0.00
  YS02001890YS02001895    1.00   0.00  0.10  0.00  0.90  0.00  0.00  0.00  0.00  0.00
  YS02001895YS02001898    1.00   0.10  0.00  0.00  0.88  0.00  0.01  0.00  0.00  0.00
  YS02001898YS02001901    1.00   0.10  0.01  0.00  0.89  0.00  0.00  0.00  0.02  0.00
  YS02001901YS02001904    1.00   0.10  0.00  0.00  0.90  0.00  0.00  0.00  0.00  0.00
  YS02001904YS02001907    1.00   0.00  0.09  0.00  0.90  0.00  0.00  0.00  0.00  0.00
  YS02001887YS02001890    1.00   0.00  0.00  0.00  0.99  0.00  0.01  0.00  0.00  0.00
  YS02001652YS02001649    1.00   0.00  0.00  0.00  1.00  0.00  0.00  0.00  0.27  0.00
  YS02001655YS02001652    1.00   0.00  0.00  0.00  0.87  0.00  0.00  0.13  0.02  0.00
  YS02001658YS02001655    1.00   0.00  0.08  0.00  0.86  0.06  0.00  0.00  0.18  0.00
  YS02001661YS02001658    1.00   0.08  0.00  0.00  0.63  0.29  0.00  0.00  0.30  0.00
  YS02001664YS02001661    1.00   0.05  0.00  0.00  0.95  0.00  0.00  0.00  0.86  0.00
  YSB1154YSB6556          1.00   0.05  0.00  0.00  0.95  0.00  0.00  0.00  0.02  0.00
  YSB1174YSB1171          1.00   0.02  0.02  0.00  0.96  0.00  0.00  0.00  0.00  0.00
  YSB1171HS02004479       1.00   0.02  0.00  0.00  0.98  0.00  0.00  0.01  0.13  0.00
  HS02004881HS02006253    1.00   0.02  0.00  0.00  0.00  0.00  0.00  0.98  0.00  0.00
  YS02001793JiankangQianchi    1.00   0.00  0.00  0.00  1.00  0.00  0.00  0.00  0.71  0.00
  YS02001757CaochengTiaoxuchi    1.00   0.00  0.15  0.00  0.85  0.00  0.00  0.00  0.00  0.00
  WSF200WS02003060        1.00   0.00  0.15  0.00  0.85  0.00  0.00  0.00  0.69  0.00
  1                       1.00   0.00  0.00  0.00  0.00  1.00  0.00  0.00  0.20  0.00
  2                       1.00   1.00  0.00  0.00  0.00  0.00  0.00  0.00  0.00  0.00
  3                       1.00   0.40  0.00  0.00  0.00  0.60  0.00  0.00  0.01  0.00
  4                       1.00   1.00  0.00  0.00  0.00  0.00  0.00  0.00  0.00  0.00
  
  
  *************************
  Conduit Surcharge Summary
  *************************
  
  ----------------------------------------------------------------------------
                                                           Hours        Hours 
                         --------- Hours Full --------   Above Full   Capacity
  Conduit                Both Ends  Upstream  Dnstream   Normal Flow   Limited
  ----------------------------------------------------------------------------
  WS02006256WS02006235        1.37      1.40      5.12      1.70         0.01
  WS02006235WS02006234        0.01      0.01      0.01      1.44         0.01
  WS02006231WS02006230        0.01      0.01      0.01      1.75         0.01
  WS02006230WS02006229        0.01      0.01      0.01      3.00         0.01
  WS02006228WS02006109        0.01      0.01      0.01      0.11         0.01
  WS02004404WS02004405        0.01      0.01      0.01      1.77         0.01
  WS02003072WS02003073        0.01      0.01      0.01      0.50         0.01
  YS02001759YS02001757        4.16      4.16      4.63      0.01         0.01
  YS02001762YS02001759        3.99      3.99      4.16      0.01         0.01
  YS02001765YS02001762        3.74      3.74      3.99      0.01         0.01
  YS02001770YS02001767        3.54      3.55      3.57      0.01         0.04
  YS02001774YS02001770        3.38      3.38      3.89      0.01         0.01
  YS02001779YS02001774        2.41      2.41      3.89      0.01         0.01
  YS02001649YS02001757        4.04      4.04      4.63      0.01         0.01
  YS02001767YS02001765        3.57      3.57      3.74      0.01         0.01
  YS02001629YS02163301        3.26      3.26      3.43      0.01         0.01
  YS02001619YS02001622        0.23      0.23      0.49      0.01         0.01
  YS02001622YS02001625        0.49      0.49      2.95      0.01         0.01
  YS02001625YS02001629        0.23      0.23      2.95      0.01         0.01
  YS02163301YS02001633        3.43      3.43      3.75      0.01         0.01
  YS02163601YS02164001        3.72      3.72      4.01      0.01         0.01
  YS02164001YS02001641        3.72      3.72      3.81      0.01         0.01
  YS02001641YS02001644        3.81      3.81      3.84      0.01         0.05
  YS02001647YS02001649        2.90      2.90      4.04      0.01         0.01
  YS02001633YS02163601        3.63      3.63      4.01      0.01         0.01
  YS02001644YS02001647        2.90      2.90      3.84      0.01         0.01
  YS02001748YS02001751        0.01      0.01      0.77      0.01         0.01
  YS02001751YS02001754        0.77      0.77      2.60      0.01         0.01
  YS02001754YS02001757        2.91      2.91      4.63      0.01         0.01
  YS02001652YS02001649        2.98      2.98      4.04      0.01         0.01
  YS02001655YS02001652        1.06      1.06      2.80      0.01         0.01
  YS02001658YS02001655        0.01      0.01      1.06      0.01         0.01
  YS02001793JiankangQianchi        0.01      0.01      7.82      0.01         0.01
  YS02001757CaochengTiaoxuchi        0.01      0.01      4.63      0.01         0.01
  
  
  ***************
  Pumping Summary
  ***************
  
  ---------------------------------------------------------------------------------------------------------
                                                  Min       Avg       Max     Total     Power    % Time Off
                        Percent   Number of      Flow      Flow      Flow    Volume     Usage    Pump Curve
  Pump                 Utilized   Start-Ups       LPS       LPS       LPS  10^6 ltr     Kw-hr    Low   High
  ---------------------------------------------------------------------------------------------------------
  CC-Pump-1                0.00           0      0.00      0.00      0.00     0.000      0.00    0.0    0.0
  CC-Pump-2                0.00           0      0.00      0.00      0.00     0.000      0.00    0.0    0.0
  JK-Pump-1               21.90          13      0.00    300.00    300.00     1.853     16.54    0.0    0.0
  JK-Pump-2                0.00           0      0.00      0.00      0.00     0.000      0.00    0.0    0.0
  XR-Pump-1              100.00           1      0.00     95.00     95.00     2.679     20.48    0.0    0.0
  XR-Pump-2               94.70           1      0.00     95.00     95.00     2.537     19.05    0.0    0.0
  XR-Pump-3               37.58           6      0.00     95.00     95.00     1.007      7.58    0.0    0.0
  XR-Pump-4                0.00           0      0.00      0.00      0.00     0.000      0.00    0.0    0.0
  

  Analysis begun on:  Thu Jan  6 00:07:01 2022
  Analysis ended on:  Thu Jan  6 00:07:02 2022
  Total elapsed time: 00:00:01