
  EPA STORM WATER MANAGEMENT MODEL - VERSION 5.1 (Build 5.3.0.dev0)
  --------------------------------------------------------------

  WARNING 04: minimum elevation drop used for Conduit WS02004404WS02004405
  WARNING 03: negative offset ignored for Link YS02001904YS02001907
  
  *********************************************************
  NOTE: The summary statistics displayed in this report are
  based on results found at every computational time step,  
  not just on results from each reporting time step.
  *********************************************************
  
  ****************
  Analysis Options
  ****************
  Flow Units ............... LPS
  Process Models:
    Rainfall/Runoff ........ YES
    RDII ................... NO
    Snowmelt ............... NO
    Groundwater ............ NO
    Flow Routing ........... YES
    Ponding Allowed ........ NO
    Water Quality .......... NO
  Infiltration Method ...... HORTON
  Flow Routing Method ...... DYNWAVE
  Surcharge Method ......... EXTRAN
  Starting Date ............ 08/28/2015 08:00:00
  Ending Date .............. 08/28/2015 15:50:00
  Antecedent Dry Days ...... 8.0
  Report Time Step ......... 00:01:00
  Wet Time Step ............ 00:01:00
  Dry Time Step ............ 00:01:00
  Routing Time Step ........ 5.00 sec
  Variable Time Step ....... YES
  Maximum Trials ........... 8
  Number of Threads ........ 4
  Head Tolerance ........... 0.001500 m
  
  
  **************************        Volume         Depth
  Runoff Quantity Continuity     hectare-m            mm
  **************************     ---------       -------
  Total Precipitation ......         3.299         7.222
  Evaporation Loss .........         0.000         0.000
  Infiltration Loss ........         0.835         1.829
  Surface Runoff ...........         1.533         3.357
  Final Storage ............         0.931         2.037
  Continuity Error (%) .....        -0.018
  
  
  **************************        Volume        Volume
  Flow Routing Continuity        hectare-m      10^6 ltr
  **************************     ---------     ---------
  Dry Weather Inflow .......         0.616         6.165
  Wet Weather Inflow .......         1.532        15.324
  Groundwater Inflow .......         0.000         0.000
  RDII Inflow ..............         0.000         0.000
  External Inflow ..........         0.102         1.024
  External Outflow .........         1.321        13.214
  Flooding Loss ............         0.378         3.776
  Evaporation Loss .........         0.000         0.000
  Exfiltration Loss ........         0.000         0.000
  Initial Stored Volume ....         0.076         0.761
  Final Stored Volume ......         0.627         6.274
  Continuity Error (%) .....         0.039
  
  
  *************************
  Highest Continuity Errors
  *************************
  Node HS02004842 (24.59%)
  Node YS02001774 (22.34%)
  Node YS02001884 (18.90%)
  Node YSB1171 (5.53%)
  Node HS02004817 (4.28%)
  
  
  ***************************
  Time-Step Critical Elements
  ***************************
  Link 3 (81.47%)
  Link WS02006280WS02006229 (6.77%)
  Link YS02001791YS02001793 (2.99%)
  Link WS02006238WS02006235 (2.74%)
  
  
  ********************************
  Highest Flow Instability Indexes
  ********************************
  Link WS02006113WS02006111 (34)
  Link YS02006558YS02006561 (24)
  Link WS02006111WS02006112 (19)
  Link YS02001629YS02163301 (18)
  Link YS02001619YS02001622 (17)
  
  
  *************************
  Routing Time Step Summary
  *************************
  Minimum Time Step           :     0.09 sec
  Average Time Step           :     1.32 sec
  Maximum Time Step           :     5.00 sec
  Percent in Steady State     :    -0.00
  Average Iterations per Step :     3.85
  Percent Not Converging      :    20.56
  
  
  ***************************
  Subcatchment Runoff Summary
  ***************************
  
  ------------------------------------------------------------------------------------------------------------------------------
                            Total      Total      Total      Total     Imperv       Perv      Total       Total     Peak  Runoff
                           Precip      Runon       Evap      Infil     Runoff     Runoff     Runoff      Runoff   Runoff   Coeff
  Subcatchment                 mm         mm         mm         mm         mm         mm         mm    10^6 ltr      LPS
  ------------------------------------------------------------------------------------------------------------------------------
  sub0                       7.22       0.00       0.00       0.51       5.45       0.00       5.45        0.00     1.87   0.755
  sub1                       7.22       0.00       0.00       0.79       5.17       0.00       5.17        0.03    10.07   0.716
  sub2                       7.22       0.00       0.00       2.67       3.64       0.00       3.64        0.03     8.96   0.504
  sub3                       7.22       0.00       0.00       2.67       3.61       0.00       3.61        0.08    18.60   0.499
  sub4                       7.22       0.00       0.00       0.79       5.03       0.00       5.03        0.10    21.02   0.696
  sub5                       7.22       0.00       0.00       0.51       5.40       0.00       5.40        0.06    17.91   0.748
  sub7                       7.22       0.00       0.00       0.65       5.32       0.00       5.32        0.02     6.25   0.736
  sub8                       7.22       0.00       0.00       0.65       5.31       0.00       5.31        0.03    11.07   0.735
  sub9                       7.22       0.00       0.00       0.65       5.31       0.00       5.31        0.03     8.21   0.735
  sub10                      7.22       0.00       0.00       0.58       5.35       0.00       5.35        0.06    17.84   0.741
  sub11                      7.22       0.00       0.00       0.58       5.37       0.00       5.37        0.06    20.80   0.743
  sub12                      7.22       0.00       0.00       0.94       5.09       0.00       5.09        0.04    17.39   0.705
  sub14                      7.22       0.00       0.00       0.65       5.30       0.00       5.30        0.05    16.06   0.734
  sub15                      7.22       0.00       0.00       2.17       4.08       0.00       4.08        0.07    21.83   0.565
  sub16                      7.22       0.00       0.00       2.38       3.92       0.00       3.92        0.04    15.34   0.543
  sub17                      7.22       0.00       0.00       2.31       3.98       0.00       3.98        0.03    12.43   0.551
  sub22                      7.22       0.00       0.00       3.11       3.33       0.00       3.33        0.21    71.06   0.461
  sub23                      7.22       0.00       0.00       2.67       3.68       0.00       3.68        0.18    60.47   0.510
  sub60                      7.22       0.00       0.00       0.87       3.78       0.00       3.78        1.14   112.07   0.523
  sub61                      7.22       0.00       0.00       1.23       3.98       0.00       3.98        1.23   138.95   0.551
  sub62                      7.22       0.00       0.00       0.58       4.28       0.00       4.28        1.32   142.49   0.593
  sub63                      7.22       0.00       0.00       2.09       3.52       0.00       3.52        1.07   129.10   0.488
  sub64                      7.22       0.00       0.00       1.08       3.61       0.00       3.61        1.10   106.54   0.500
  sub65                      7.22       0.00       0.00       0.94       3.66       0.00       3.66        1.13   108.21   0.507
  sub66                      7.22       0.00       0.00       2.09       3.14       0.00       3.14        0.96    97.28   0.435
  sub67                      7.22       0.00       0.00       0.58       4.65       0.00       4.65        1.44   180.98   0.644
  sub68                      7.22       0.00       0.00       1.01       4.22       0.00       4.22        1.30   153.18   0.584
  sub69                      7.22       0.00       0.00       1.08       4.50       0.00       4.50        1.05   150.30   0.622
  sub70                      7.22       4.59       0.00       4.02       5.68       0.00       5.68        1.30   127.11   0.481
  sub71                      7.22       0.00       0.00       0.58       4.12       0.00       4.12        0.97    99.87   0.570
  sub72                      7.22       0.00       0.00       0.51       3.01       0.00       3.01        0.61    48.25   0.416
  sub73                      7.22       5.52       0.00       4.33       5.90       0.00       5.90        1.39   110.44   0.463
  sub74                      7.22       0.00       0.00       5.42       1.35       0.00       1.35        0.54    83.48   0.187
  
  
  ******************
  Node Depth Summary
  ******************
  
  ---------------------------------------------------------------------------------
                                 Average  Maximum  Maximum  Time of Max    Reported
                                   Depth    Depth      HGL   Occurrence   Max Depth
  Node                 Type       Meters   Meters   Meters  days hr:min      Meters
  ---------------------------------------------------------------------------------
  WS02001211           JUNCTION     0.68     0.71     5.55     0  02:41        0.71
  WS02001212           JUNCTION     0.40     0.43     5.49     0  02:40        0.43
  WS02001213           JUNCTION     0.61     0.68     5.44     0  02:39        0.68
  WS02003069           JUNCTION     0.39     0.50     5.09     0  02:38        0.50
  WS02003072           JUNCTION     0.46     0.57     4.94     0  02:39        0.57
  WS02003073           JUNCTION     0.27     0.34     4.41     0  02:39        0.34
  WS02003060           JUNCTION     0.35     0.45     5.38     0  02:38        0.45
  WS02003066           JUNCTION     0.18     0.27     5.82     0  02:35        0.27
  WS02003059           JUNCTION     0.66     0.73     5.42     0  02:39        0.73
  WS02003067           JUNCTION     0.46     0.65     5.97     0  02:34        0.65
  WS02004401           JUNCTION     0.53     0.77     6.77     0  02:30        0.77
  WS02004402           JUNCTION     0.56     0.80     6.76     0  02:30        0.80
  WS02004403           JUNCTION     0.59     0.82     6.75     0  02:30        0.82
  WS02004404           JUNCTION     0.66     0.89     6.74     0  02:30        0.89
  WS02004406           JUNCTION     0.68     0.89     6.72     0  02:31        0.89
  WS02004409           JUNCTION     0.35     0.58     6.35     0  02:34        0.58
  WS02004410           JUNCTION     0.37     0.60     6.32     0  02:34        0.60
  WS02004411           JUNCTION     0.39     0.62     6.30     0  02:34        0.62
  WS02004412           JUNCTION     0.41     0.63     6.27     0  02:34        0.63
  WS02004413           JUNCTION     0.57     0.79     6.26     0  02:34        0.79
  WS02004405           JUNCTION     0.66     0.89     6.74     0  02:31        0.89
  WS02006109           JUNCTION     0.59     0.85     7.47     0  02:28        0.85
  WS02006110           JUNCTION     0.60     0.83     7.42     0  02:28        0.83
  WS02006111           JUNCTION     0.16     0.25     6.96     0  02:29        0.25
  WS02006112           JUNCTION     0.68     0.95     6.83     0  02:29        0.95
  WS02006113           JUNCTION     0.24     0.40     7.29     0  02:28        0.40
  WS02006115           JUNCTION     0.41     0.66     6.80     0  02:30        0.66
  WS02006116           JUNCTION     0.50     0.74     6.78     0  02:30        0.74
  WS02006230           JUNCTION     0.50     0.81     7.56     0  02:28        0.81
  WS02006231           JUNCTION     0.29     0.47     7.59     0  02:27        0.46
  WS02006232           JUNCTION     0.40     0.57     7.61     0  02:28        0.57
  WS02006234           JUNCTION     0.30     0.47     7.62     0  02:28        0.47
  WS02006235           JUNCTION     0.33     0.48     7.65     0  02:31        0.48
  WS02006238           JUNCTION     0.35     0.50     7.65     0  02:31        0.50
  WS02006240           JUNCTION     0.21     0.36     7.65     0  02:28        0.36
  WS02006242           JUNCTION     0.24     0.39     7.66     0  02:28        0.39
  WS02006243           JUNCTION     0.11     0.24     7.66     0  02:29        0.24
  WS02006245           JUNCTION     0.08     0.20     7.68     0  02:29        0.20
  WS02006247           JUNCTION     0.09     0.22     7.72     0  02:18        0.22
  WS02006248           JUNCTION     0.06     0.17     7.76     0  02:17        0.17
  WS02006249           JUNCTION     0.09     0.22     7.81     0  02:17        0.22
  WS02006239           JUNCTION     0.29     0.44     7.65     0  02:28        0.44
  WS02006251           JUNCTION     0.07     0.19     7.86     0  02:16        0.19
  WS02006252           JUNCTION     0.00     0.00     8.24     0  00:00        0.00
  WS02006253           JUNCTION     0.11     0.26     7.90     0  02:16        0.26
  WS02006256           JUNCTION     0.96     1.80     8.73     0  02:26        1.19
  WS02004138           JUNCTION     0.16     0.17     7.42     0  07:15        0.17
  WS02004407           JUNCTION     0.16     0.26     6.58     0  02:31        0.26
  WS02006228           JUNCTION     0.57     0.86     7.51     0  02:28        0.86
  WS02006229           JUNCTION     0.53     0.85     7.54     0  02:28        0.84
  WS02006280           JUNCTION     0.07     0.17     8.44     0  02:16        0.17
  WS02006284           JUNCTION     0.37     0.51     8.91     0  02:16        0.51
  WS02006287           JUNCTION     0.10     0.25     9.20     0  02:15        0.25
  WSF200               JUNCTION     0.15     0.27     5.50     0  02:34        0.27
  HS02004901           JUNCTION     0.12     0.26    10.08     0  02:13        0.26
  HS02004881           JUNCTION     0.01     0.03     9.06     0  02:15        0.03
  HS02004876           JUNCTION     0.05     0.11     9.14     0  02:11        0.11
  HS02004870           JUNCTION     0.02     0.05     9.34     0  02:16        0.05
  HS02004862           JUNCTION     0.02     0.06     9.44     0  02:17        0.06
  HS02004856           JUNCTION     0.08     0.11     9.54     0  02:16        0.11
  HS02004852           JUNCTION     0.01     0.03     9.55     0  02:17        0.03
  HS02004848           JUNCTION     0.01     0.03     9.63     0  02:16        0.03
  HS02004842           JUNCTION     0.33     0.36     9.63     0  02:16        0.36
  HS02004837           JUNCTION     0.03     0.05     9.63     0  02:16        0.05
  HS02004830           JUNCTION     0.04     0.07     9.54     0  02:16        0.07
  HS02004824           JUNCTION     0.02     0.05     9.45     0  02:19        0.05
  HS02004817           JUNCTION     0.44     0.55     9.40     0  02:16        0.55
  HS02004807           JUNCTION     0.13     0.23     9.40     0  02:16        0.23
  HS02004802           JUNCTION     0.16     0.26     9.39     0  02:16        0.26
  HS02004799           JUNCTION     0.12     0.30     9.51     0  02:14        0.30
  HS02004792           JUNCTION     0.03     0.12     9.64     0  02:13        0.12
  HS02004788           JUNCTION     0.03     0.09     9.99     0  02:14        0.09
  HS02004785           JUNCTION     0.05     0.16    10.06     0  02:14        0.16
  HS02004777           JUNCTION     0.15     0.28    10.08     0  02:13        0.28
  HS02004770           JUNCTION     0.12     0.25    10.08     0  02:13        0.25
  HS02004480           JUNCTION     0.08     0.23     9.47     0  02:14        0.23
  HS02004479           JUNCTION     0.12     0.27     9.47     0  02:14        0.27
  HS02004478           JUNCTION     0.06     0.15     9.38     0  02:15        0.15
  YS02001745           JUNCTION     0.57     0.86     8.38     0  04:06        0.86
  YS02001748           JUNCTION     0.95     1.31     8.38     0  04:01        1.30
  YS02001751           JUNCTION     1.13     2.20     9.08     0  03:00        1.51
  YS02001754           JUNCTION     1.38     2.10     8.71     0  03:00        1.79
  YS02001762           JUNCTION     1.57     2.01     8.41     0  04:01        1.99
  YS02001765           JUNCTION     1.53     1.96     8.41     0  04:01        1.94
  YS02001767           JUNCTION     1.49     1.92     8.41     0  04:03        1.89
  YS02001770           JUNCTION     1.49     1.95     8.44     0  03:00        1.88
  YS02001774           JUNCTION     1.55     2.02     8.44     0  03:00        1.95
  YS02001779           JUNCTION     1.31     1.68     8.37     0  02:54        1.68
  YS02001882           JUNCTION     0.36     0.56     7.27     0  02:50        0.56
  YS02001884           JUNCTION     0.46     0.66     7.27     0  02:51        0.66
  YS02001759           JUNCTION     1.61     2.05     8.41     0  03:51        2.03
  YS02001887           JUNCTION     0.54     0.74     7.27     0  02:51        0.74
  YS02001890           JUNCTION     0.57     0.77     7.27     0  02:51        0.77
  YS02001898           JUNCTION     0.33     0.52     7.26     0  02:53        0.52
  YS02001901           JUNCTION     0.45     0.65     7.26     0  02:53        0.65
  YS02001904           JUNCTION     0.43     0.62     7.25     0  02:53        0.62
  YS02001907           JUNCTION     0.76     0.97     7.25     0  02:53        0.96
  YS02001910           JUNCTION     0.55     0.75     7.25     0  02:53        0.75
  YS02001915           JUNCTION     0.35     0.54     7.25     0  02:55        0.54
  YS02001918           JUNCTION     0.11     0.19     7.25     0  02:55        0.19
  YS02001619           JUNCTION     1.09     1.56     8.49     0  03:21        1.45
  YS02001629           JUNCTION     1.44     1.85     8.40     0  03:27        1.82
  YS02001641           JUNCTION     1.54     1.94     8.37     0  03:47        1.92
  YS02001644           JUNCTION     1.55     1.92     8.35     0  03:42        1.92
  YS02001652           JUNCTION     1.39     2.05     8.65     0  03:05        1.85
  YS02001655           JUNCTION     1.16     2.20     9.05     0  03:04        1.62
  YS02001920           JUNCTION     0.20     0.26     7.27     0  02:55        0.26
  YS02001923           JUNCTION     0.08     0.10     7.36     0  03:01        0.10
  YS02001926           JUNCTION     0.17     0.20     7.65     0  03:01        0.20
  YS02001929           JUNCTION     0.08     0.10     7.80     0  03:01        0.10
  YS02001658           JUNCTION     0.89     1.93     9.07     0  03:20        1.42
  YS02001661           JUNCTION     0.67     1.70     9.10     0  03:51        1.11
  YS02001664           JUNCTION     0.29     0.56     8.49     0  03:58        0.55
  YS02001622           JUNCTION     1.11     1.54     8.45     0  03:22        1.48
  YS02001633           JUNCTION     1.53     1.94     8.40     0  03:49        1.91
  YS02001649           JUNCTION     1.58     2.05     8.44     0  03:51        2.02
  YS02001757           JUNCTION     1.71     2.15     8.41     0  04:01        2.15
  YS02001895           JUNCTION     0.33     0.52     7.26     0  02:51        0.52
  YS02001625           JUNCTION     1.39     1.78     8.38     0  03:24        1.77
  YS02163301           JUNCTION     1.47     1.89     8.41     0  03:27        1.85
  YS02163601           JUNCTION     1.58     1.99     8.39     0  03:49        1.96
  YS02164001           JUNCTION     1.52     1.92     8.38     0  03:49        1.90
  YS02001647           JUNCTION     1.38     1.79     8.40     0  03:51        1.77
  YSB1154              JUNCTION     0.26     0.42     9.48     0  02:14        0.42
  YSB6556              JUNCTION     0.15     0.31     9.48     0  02:14        0.31
  YSB1174              JUNCTION     0.21     0.37     9.48     0  02:14        0.37
  YSB1171              JUNCTION     0.41     0.57     9.48     0  02:14        0.57
  YS02006553           JUNCTION     0.77     0.97     7.25     0  02:53        0.97
  YS02006561           JUNCTION     0.18     0.28     6.94     0  02:51        0.28
  YS02006556           JUNCTION     0.74     0.94     7.25     0  02:52        0.93
  YS02006558           JUNCTION     0.78     0.98     7.25     0  02:52        0.98
  YS02001783           JUNCTION     0.32     0.50     6.64     0  02:51        0.50
  YS02001784           JUNCTION     0.35     0.52     6.59     0  02:52        0.52
  YS02001786           JUNCTION     0.30     0.44     6.47     0  02:52        0.44
  YS02001788           JUNCTION     0.22     0.34     6.32     0  02:52        0.34
  YS02001790           JUNCTION     0.27     0.41     6.06     0  02:52        0.41
  YS02001791           JUNCTION     0.17     0.36     5.83     0  02:23        0.34
  YS02001793           JUNCTION     0.36     2.66     7.49     0  02:23        0.90
  WS02004139           JUNCTION     0.62     0.65     5.56     0  02:41        0.65
  WSC                  OUTFALL      0.27     0.34     1.01     0  02:40        0.34
  3                    OUTFALL      0.10     0.22     6.22     0  02:26        0.19
  4                    OUTFALL      0.00     0.00     7.00     0  00:00        0.00
  5                    OUTFALL      0.00     0.00     5.00     0  00:00        0.00
  JK-storage           STORAGE      4.21     4.88     5.68     0  02:31        4.87
  CC-storage           STORAGE      0.95     1.38     8.38     0  04:02        1.38
  XR-storage           STORAGE      7.40     7.72     5.72     0  02:33        7.72
  
  
  *******************
  Node Inflow Summary
  *******************
  
  -------------------------------------------------------------------------------------------------
                                  Maximum  Maximum                  Lateral       Total        Flow
                                  Lateral    Total  Time of Max      Inflow      Inflow     Balance
                                   Inflow   Inflow   Occurrence      Volume      Volume       Error
  Node                 Type           LPS      LPS  days hr:min    10^6 ltr    10^6 ltr     Percent
  -------------------------------------------------------------------------------------------------
  WS02001211           JUNCTION      7.35   294.53     0  07:16       0.207        7.18       0.449
  WS02001212           JUNCTION      0.00   293.61     0  02:54           0        7.15       0.222
  WS02001213           JUNCTION      0.00   294.09     0  02:54           0        7.13       0.260
  WS02003069           JUNCTION      0.32   729.81     0  02:38     0.00902        10.7       0.169
  WS02003072           JUNCTION      0.00   729.79     0  02:38           0        10.7       0.229
  WS02003073           JUNCTION      1.82   731.62     0  02:39      0.0514        10.7       0.253
  WS02003060           JUNCTION     16.53   729.51     0  02:37       0.466        10.7       0.159
  WS02003066           JUNCTION      0.00   423.89     0  02:35           0        3.18       0.064
  WS02003059           JUNCTION      0.00   295.02     0  02:53           0        7.12       0.464
  WS02003067           JUNCTION      0.00   423.88     0  02:34           0        3.19       0.162
  WS02004401           JUNCTION      0.00   430.79     0  02:30           0        3.31       0.360
  WS02004402           JUNCTION      0.00   430.27     0  02:30           0         3.3       0.362
  WS02004403           JUNCTION      0.00   429.69     0  02:30           0        3.29       0.348
  WS02004404           JUNCTION      0.16   429.41     0  02:30     0.00457        3.28       0.299
  WS02004406           JUNCTION      0.00   429.14     0  02:30           0        3.26       0.697
  WS02004409           JUNCTION      0.00   428.77     0  02:31           0        3.23       0.155
  WS02004410           JUNCTION      0.00   427.09     0  02:31           0        3.23       0.217
  WS02004411           JUNCTION      0.00   425.64     0  02:32           0        3.22       0.253
  WS02004412           JUNCTION      0.00   424.53     0  02:32           0        3.21       0.316
  WS02004413           JUNCTION      0.00   424.07     0  02:34           0         3.2       0.536
  WS02004405           JUNCTION      0.04   429.31     0  02:30     0.00107        3.27       0.417
  WS02006109           JUNCTION      1.23   427.33     0  02:28      0.0347        3.33       0.335
  WS02006110           JUNCTION      0.00   427.35     0  02:28           0        3.32       0.304
  WS02006111           JUNCTION      0.00   437.39     0  02:29           0        3.31       0.031
  WS02006112           JUNCTION     12.43   435.65     0  02:26      0.0341        3.34       0.481
  WS02006113           JUNCTION      0.00   427.19     0  02:28           0        3.31       0.071
  WS02006115           JUNCTION      0.00   433.07     0  02:29           0        3.33       0.267
  WS02006116           JUNCTION      0.00   432.01     0  02:29           0        3.32       0.275
  WS02006230           JUNCTION     10.28   199.00     0  02:38        0.29        2.23       0.301
  WS02006231           JUNCTION      0.00   188.29     0  02:37           0        1.93      -0.140
  WS02006232           JUNCTION      0.00   188.04     0  02:37           0        1.93       0.190
  WS02006234           JUNCTION      0.00   187.81     0  02:37           0        1.92      -0.140
  WS02006235           JUNCTION      0.00   205.17     0  02:17           0         2.1       0.275
  WS02006238           JUNCTION      0.00   133.24     0  02:17           0        0.48       0.144
  WS02006240           JUNCTION      0.00    62.58     0  02:18           0       0.328       0.493
  WS02006242           JUNCTION      0.00    56.56     0  02:21           0       0.256       0.388
  WS02006243           JUNCTION      0.00    56.77     0  02:20           0       0.206      -0.278
  WS02006245           JUNCTION      0.00    56.62     0  02:18           0       0.197       0.698
  WS02006247           JUNCTION      0.00    56.67     0  02:17           0       0.196       0.060
  WS02006248           JUNCTION      0.00    56.70     0  02:17           0       0.196      -0.034
  WS02006249           JUNCTION      0.00    56.76     0  02:16           0       0.197       0.254
  WS02006239           JUNCTION      0.00    79.76     0  02:17           0       0.405      -0.203
  WS02006251           JUNCTION      0.08    56.84     0  02:15     0.00217       0.197       0.039
  WS02006252           JUNCTION      0.00     0.00     0  00:00           0           0       0.000 ltr
  WS02006253           JUNCTION      1.87    56.79     0  02:15     0.00441       0.195       0.072
  WS02006256           JUNCTION      0.00   600.00     0  02:26           0        4.27       0.256
  WS02004138           JUNCTION      0.00   285.00     0  02:03           0           7       0.046
  WS02004407           JUNCTION      0.00   428.92     0  02:31           0        3.23       0.069
  WS02006228           JUNCTION      0.00   426.00     0  02:28           0        3.31       0.214
  WS02006229           JUNCTION      0.00   426.10     0  02:28           0        3.33       0.323
  WS02006280           JUNCTION      0.00   283.67     0  02:16           0        1.11       0.006
  WS02006284           JUNCTION      0.10   283.64     0  02:16      0.0027        1.12       0.100
  WS02006287           JUNCTION      0.00   283.52     0  02:15           0        1.11       0.065
  WSF200               JUNCTION      0.00   423.88     0  02:35           0        3.18       0.048
  HS02004901           JUNCTION     15.34    15.34     0  02:09       0.041      0.0412       4.459
  HS02004881           JUNCTION      6.25    55.33     0  02:15      0.0179        0.19       0.033
  HS02004876           JUNCTION     10.07    49.34     0  02:16      0.0344       0.173       0.309
  HS02004870           JUNCTION     11.07    39.44     0  02:16      0.0339       0.139       0.077
  HS02004862           JUNCTION      9.16    29.04     0  02:16      0.0396       0.105       0.162
  HS02004856           JUNCTION      8.21    19.94     0  02:15      0.0255      0.0668       2.200
  HS02004852           JUNCTION      0.00    12.20     0  02:16           0      0.0413       0.126
  HS02004848           JUNCTION     18.60    18.60     0  02:19      0.0812      0.0812       0.054
  HS02004842           JUNCTION      0.00     7.06     0  02:28           0      0.0529      32.612
  HS02004837           JUNCTION     24.19    30.02     0  02:15       0.238       0.278       0.283
  HS02004830           JUNCTION      0.15    30.15     0  02:16     0.00423       0.268       0.461
  HS02004824           JUNCTION     21.07    50.96     0  02:19       0.106       0.373       0.144
  HS02004817           JUNCTION      0.60    51.55     0  02:19      0.0169        0.39       4.468
  HS02004807           JUNCTION     20.80    70.59     0  02:17      0.0623       0.435       0.980
  HS02004802           JUNCTION      0.00    71.07     0  02:18           0       0.431       0.949
  HS02004799           JUNCTION     16.06   181.66     0  02:13      0.0505       0.596       0.385
  HS02004792           JUNCTION     71.34   165.82     0  02:13       0.218       0.546       0.074
  HS02004788           JUNCTION     23.50    96.43     0  02:14       0.117       0.329       0.117
  HS02004785           JUNCTION      0.15    73.22     0  02:13     0.00423       0.214       0.227
  HS02004777           JUNCTION      0.03    73.52     0  02:12    0.000846       0.214       2.481
  HS02004770           JUNCTION     60.47    74.61     0  02:10       0.175       0.215       1.462
  HS02004480           JUNCTION      0.00   214.35     0  02:14           0       0.698       0.109
  HS02004479           JUNCTION      0.00    33.36     0  02:15           0       0.115       0.639
  HS02004478           JUNCTION      0.00   283.51     0  02:15           0        1.11       0.054
  YS02001745           JUNCTION    112.07   191.20     0  03:21        1.14        1.15       0.997
  YS02001748           JUNCTION      0.04   422.54     0  02:56     0.00127        1.17       2.003
  YS02001751           JUNCTION      0.01   465.65     0  02:57     0.00031        1.15       1.950
  YS02001754           JUNCTION      0.26   196.61     0  02:56     0.00733         1.1       2.228
  YS02001762           JUNCTION      0.00   176.63     0  02:57           0         1.2       1.773
  YS02001765           JUNCTION      0.00   175.85     0  02:57           0         1.2       2.048
  YS02001767           JUNCTION      0.54   175.12     0  02:57      0.0151        1.22       2.976
  YS02001770           JUNCTION    142.64   173.89     0  02:57        1.32        1.33       2.394
  YS02001774           JUNCTION      0.00    68.76     0  02:57           0       0.113      28.760
  YS02001779           JUNCTION      0.01    68.93     0  02:57    0.000141      0.0739      25.888
  YS02001882           JUNCTION      0.00     5.21     0  02:07           0     0.00711      34.581
  YS02001884           JUNCTION      0.00    14.84     0  02:09           0      0.0275      23.298
  YS02001759           JUNCTION    138.99   316.50     0  02:56        1.23         2.4       0.960
  YS02001887           JUNCTION    181.43   182.90     0  02:43        1.45        1.46       0.516
  YS02001890           JUNCTION      0.00   182.88     0  02:44           0        1.43       0.576
  YS02001898           JUNCTION      0.00   182.42     0  02:43           0        1.42       0.175
  YS02001901           JUNCTION      0.00   181.49     0  02:45           0        1.42       0.415
  YS02001904           JUNCTION      0.00   181.70     0  02:43           0        1.42       0.385
  YS02001907           JUNCTION      0.00   334.98     0  03:04           0        3.07       0.743
  YS02001910           JUNCTION      0.00   154.52     0  03:04           0        1.66       0.642
  YS02001915           JUNCTION     99.89   151.55     0  02:59       0.973        1.66       0.299
  YS02001918           JUNCTION      0.00    51.84     0  03:03           0        0.69       0.194
  YS02001619           JUNCTION     97.28    97.28     0  02:57       0.962       0.962       1.253
  YS02001629           JUNCTION      0.00   209.54     0  03:05           0       0.885       3.293
  YS02001641           JUNCTION      0.00   221.46     0  02:54           0        1.91       1.111
  YS02001644           JUNCTION    106.58   531.02     0  04:07         1.1        4.85       0.536
  YS02001652           JUNCTION      0.00   216.60     0  02:52           0           1       2.233
  YS02001655           JUNCTION      0.15   417.08     0  02:52     0.00434        1.04       2.256
  YS02001920           JUNCTION      2.87    51.11     0  03:01      0.0809       0.693       0.332
  YS02001923           JUNCTION      0.04    48.24     0  03:01     0.00106       0.612       0.059
  YS02001926           JUNCTION      0.05    48.28     0  03:01     0.00147       0.613       0.413
  YS02001929           JUNCTION     48.25    48.25     0  03:01       0.612       0.612       0.058
  YS02001658           JUNCTION      0.00   472.81     0  03:18           0        1.13       1.934
  YS02001661           JUNCTION      0.00   434.99     0  03:48           0        1.33       1.183
  YS02001664           JUNCTION    129.10   379.01     0  03:48        1.07        1.26       0.463
  YS02001622           JUNCTION      0.00   145.76     0  03:03           0       0.951       3.413
  YS02001633           JUNCTION    108.41   224.15     0  02:54        1.13        1.97       1.658
  YS02001649           JUNCTION      0.00   520.86     0  02:55           0        3.92       0.951
  YS02001757           JUNCTION      0.00   840.97     0  02:56           0        5.53       1.690
  YS02001895           JUNCTION      0.00   181.57     0  02:39           0        1.42       0.284
  YS02001625           JUNCTION      0.00   209.88     0  03:05           0       0.921       4.459
  YS02163301           JUNCTION      0.00   125.75     0  03:17           0       0.869       2.833
  YS02163601           JUNCTION      0.11   223.31     0  02:54      0.0031        1.93       1.584
  YS02164001           JUNCTION      0.00   223.01     0  02:54           0        1.91       1.060
  YS02001647           JUNCTION      0.00   349.19     0  04:07           0        3.34       0.840
  YSB1154              JUNCTION     17.91    17.91     0  02:13      0.0612      0.0625       2.365
  YSB6556              JUNCTION      0.00    17.93     0  02:14           0      0.0634       2.007
  YSB1174              JUNCTION     17.39    17.39     0  02:08      0.0445      0.0454       2.906
  YSB1171              JUNCTION      0.00    33.26     0  02:14           0       0.114       5.851
  YS02006553           JUNCTION      0.00   336.09     0  03:04           0        3.05       0.481
  YS02006561           JUNCTION      0.00   520.36     0  02:52           0        4.32       0.006
  YS02006556           JUNCTION      0.00   338.21     0  03:04           0        3.06       0.348
  YS02006558           JUNCTION    154.06   487.83     0  02:42        1.32        4.35       0.118
  YS02001783           JUNCTION      0.00   481.32     0  02:51           0        4.32       0.041
  YS02001784           JUNCTION      1.06   481.30     0  02:52      0.0299        4.35       0.065
  YS02001786           JUNCTION      0.06   481.26     0  02:52     0.00159        4.35       0.063
  YS02001788           JUNCTION      0.07   481.40     0  02:52       0.002        4.35       0.037
  YS02001790           JUNCTION      0.15   481.64     0  02:52     0.00437        4.35       0.046
  YS02001791           JUNCTION      0.00   481.52     0  02:52           0        4.35       0.019
  YS02001793           JUNCTION      0.00  1004.84     0  02:22           0        4.49       0.140
  WS02004139           JUNCTION      0.32   286.24     0  07:15     0.00905        7.01       0.436
  WSC                  OUTFALL       0.00   731.62     0  02:40           0        10.7       0.000
  3                    OUTFALL       0.00   569.53     0  02:26           0        2.52       0.000
  4                    OUTFALL       0.00     0.00     0  00:00           0           0       0.000 ltr
  5                    OUTFALL       0.00     0.00     0  00:00           0           0       0.000 ltr
  JK-storage           STORAGE       0.00  1202.23     0  02:22           0        4.63       0.227
  CC-storage           STORAGE       0.00   843.11     0  02:56           0        3.93       1.678
  XR-storage           STORAGE     380.78   380.78     0  02:55        7.57        8.17      -0.000
  
  
  **********************
  Node Surcharge Summary
  **********************
  
  Surcharging occurs when water rises above the top of the highest conduit.
  ---------------------------------------------------------------------
                                               Max. Height   Min. Depth
                                   Hours       Above Crown    Below Rim
  Node                 Type      Surcharged         Meters       Meters
  ---------------------------------------------------------------------
  WS02006109           JUNCTION        0.25          0.030        1.790
  WS02006256           JUNCTION        0.01          0.497        0.553
  WS02006228           JUNCTION        0.24          0.032        2.168
  YS02001748           JUNCTION        4.27          0.228        0.962
  YS02001751           JUNCTION        4.65          1.200        0.000
  YS02001754           JUNCTION        5.02          1.051        0.099
  YS02001762           JUNCTION        5.40          1.011        0.139
  YS02001765           JUNCTION        5.37          0.955        0.145
  YS02001767           JUNCTION        5.35          0.917        0.113
  YS02001770           JUNCTION        5.33          0.920        0.000
  YS02001774           JUNCTION        5.39          1.015        0.035
  YS02001779           JUNCTION        4.92          0.680        0.000
  YS02001759           JUNCTION        5.43          1.047        0.163
  YS02001619           JUNCTION        4.56          0.564        0.046
  YS02001629           JUNCTION        4.60          0.470        0.000
  YS02001641           JUNCTION        5.39          0.937        0.163
  YS02001644           JUNCTION        5.39          0.920        0.000
  YS02001652           JUNCTION        5.17          1.022        0.108
  YS02001655           JUNCTION        4.67          1.200        0.000
  YS02001658           JUNCTION        4.31          0.927        0.373
  YS02001661           JUNCTION        0.04          0.630        0.760
  YS02001622           JUNCTION        4.64          0.542        0.078
  YS02001633           JUNCTION        5.37          0.924        0.136
  YS02001649           JUNCTION        5.41          1.050        0.000
  YS02001757           JUNCTION        5.49          1.151        0.059
  YS02001625           JUNCTION        5.27          0.780        0.000
  YS02163301           JUNCTION        5.34          0.894        0.136
  YS02163601           JUNCTION        5.41          0.991        0.089
  YS02164001           JUNCTION        5.37          0.921        0.179
  YS02001647           JUNCTION        5.22          0.792        0.108
  YS02001793           JUNCTION        0.01          1.661        0.939
  
  
  *********************
  Node Flooding Summary
  *********************
  
  Flooding refers to all water that overflows a node, whether it ponds or not.
  --------------------------------------------------------------------------
                                                             Total   Maximum
                                 Maximum   Time of Max       Flood    Ponded
                        Hours       Rate    Occurrence      Volume     Depth
  Node                 Flooded       LPS   days hr:min    10^6 ltr    Meters
  --------------------------------------------------------------------------
  YS02001751              0.01    190.53      0  03:00       0.000     0.000
  YS02001770              0.01      7.16      0  03:00       0.000     0.000
  YS02001779              0.66     67.34      0  04:10       0.045     0.000
  YS02001629              0.01     15.14      0  03:27       0.000     0.000
  YS02001644              4.04    530.96      0  04:07       3.338     0.000
  YS02001655              0.01    190.00      0  03:04       0.000     0.000
  YS02001649              0.01     12.54      0  03:51       0.000     0.000
  YS02001625              0.02     12.01      0  03:27       0.000     0.000
  XR-storage              2.22     95.78      0  02:55       0.392     0.000
  
  
  **********************
  Storage Volume Summary
  **********************
  
  --------------------------------------------------------------------------------------------------
                         Average     Avg  Evap Exfil       Maximum     Max    Time of Max    Maximum
                          Volume    Pcnt  Pcnt  Pcnt        Volume    Pcnt     Occurrence    Outflow
  Storage Unit           1000 m3    Full  Loss  Loss       1000 m3    Full    days hr:min        LPS
  --------------------------------------------------------------------------------------------------
  JK-storage               0.211      73     0     0         0.245      84       0  02:31     940.14
  CC-storage               2.636      17     0     0         3.850      25       0  04:02     137.09
  XR-storage               0.888      96     0     0         0.926     100       0  02:33     285.00
  
  
  ***********************
  Outfall Loading Summary
  ***********************
  
  -----------------------------------------------------------
                         Flow       Avg       Max       Total
                         Freq      Flow      Flow      Volume
  Outfall Node           Pcnt       LPS       LPS    10^6 ltr
  -----------------------------------------------------------
  WSC                  100.00    477.87    731.62      10.699
  3                     81.62    219.64    569.53       2.515
  4                      0.00      0.00      0.00       0.000
  5                      0.00      0.00      0.00       0.000
  -----------------------------------------------------------
  System                45.40    697.51   1296.38      13.214
  
  
  ********************
  Link Flow Summary
  ********************
  
  -----------------------------------------------------------------------------
                                 Maximum  Time of Max   Maximum    Max/    Max/
                                  |Flow|   Occurrence   |Veloc|    Full    Full
  Link                 Type          LPS  days hr:min     m/sec    Flow   Depth
  -----------------------------------------------------------------------------
  WS02003066WSF200     CONDUIT    423.88     0  02:35      2.61    0.07    0.20
  WS02006287WS02006284 CONDUIT    283.54     0  02:16      1.80    0.13    0.25
  WS02006284WS02006280 CONDUIT    283.67     0  02:16      2.04    0.12    0.23
  WS02006280WS02006229 CONDUIT    283.67     0  02:16      3.29    0.06    0.17
  WS02006229WS02006228 CONDUIT    426.00     0  02:28      0.85    1.41    1.00
  WS02006256WS02006235 CONDUIT    166.35     0  06:13      2.55    1.76    1.00
  WS02006253WS02006251 CONDUIT     56.76     0  02:15      0.55    0.17    0.31
  WS02006252WS02006251 CONDUIT      0.00     0  00:00      0.00    0.00    0.00
  WS02006251WS02006249 CONDUIT     56.76     0  02:16      0.60    0.16    0.29
  WS02006249WS02006248 CONDUIT     56.70     0  02:17      0.71    0.31    0.26
  WS02006248WS02006247 CONDUIT     56.67     0  02:17      0.68    0.12    0.27
  WS02006247WS02006245 CONDUIT     56.62     0  02:18      0.63    0.45    0.28
  WS02006245WS02006243 CONDUIT     56.77     0  02:20      0.77    0.17    0.31
  WS02006243WS02006242 CONDUIT     56.56     0  02:21      0.63    0.12    0.43
  WS02006242WS02006240 CONDUIT     57.53     0  02:20      0.52    0.23    0.53
  WS02006240WS02006239 CONDUIT     52.55     0  02:30      0.73    0.17    0.54
  WS02006239WS02006238 CONDUIT     78.70     0  04:23      0.66    0.25    0.66
  WS02006238WS02006235 CONDUIT    117.33     0  05:31      1.02    0.26    0.70
  WS02006235WS02006234 CONDUIT    187.81     0  02:37      0.90    1.98    0.66
  WS02006234WS02006232 CONDUIT    188.04     0  02:37      0.76    0.38    0.74
  WS02006232WS02006231 CONDUIT    188.29     0  02:37      0.69    0.39    0.73
  WS02006231WS02006230 CONDUIT    188.72     0  02:38      1.02    2.86    0.64
  WS02006230WS02006229 CONDUIT    200.21     0  02:38      0.52    4.46    1.00
  WS02006228WS02006109 CONDUIT    426.10     0  02:28      0.85    1.86    1.00
  WS02006116WS02004401 CONDUIT    430.79     0  02:30      0.68    0.59    0.75
  WS02006115WS02006116 CONDUIT    432.01     0  02:29      0.80    0.55    0.67
  WS02006113WS02006111 CONDUIT    437.39     0  02:29      2.27    0.52    0.41
  WS02006112WS02006115 CONDUIT    433.07     0  02:29      0.66    0.26    0.80
  WS02006111WS02006112 CONDUIT    427.74     0  02:29      1.23    0.20    0.65
  WS02006110WS02006113 CONDUIT    427.19     0  02:28      1.06    0.39    0.75
  WS02006109WS02006110 CONDUIT    427.35     0  02:28      0.87    0.82    0.95
  WS02004411WS02004412 CONDUIT    424.53     0  02:32      0.97    0.60    0.62
  WS02004401WS02004402 CONDUIT    430.27     0  02:30      0.65    0.52    0.78
  WS02004413WS02003067 CONDUIT    423.88     0  02:34      0.98    0.18    0.54
  WS02004412WS02004413 CONDUIT    424.07     0  02:34      0.86    0.28    0.71
  WS02004410WS02004411 CONDUIT    425.64     0  02:32      0.85    0.58    0.61
  WS02004409WS02004410 CONDUIT    427.09     0  02:31      0.90    0.55    0.59
  WS02004407WS02004409 CONDUIT    428.77     0  02:31      1.39    0.15    0.42
  WS02004406WS02004407 CONDUIT    428.92     0  02:31      0.91    0.19    0.58
  WS02004405WS02004406 CONDUIT    429.14     0  02:30      0.58    0.85    0.89
  WS02004404WS02004405 CONDUIT    429.27     0  02:30      0.58    4.21    0.89
  WS02004403WS02004404 CONDUIT    429.25     0  02:30      0.60    0.31    0.85
  WS02004402WS02004403 CONDUIT    429.69     0  02:30      0.63    0.62    0.81
  WS02004139WS02001211 CONDUIT    287.18     0  07:16      0.54    0.36    0.53
  WS02004138WS02004139 CONDUIT    285.92     0  07:15      2.39    0.06    0.38
  WS02003067WS02003066 CONDUIT    423.89     0  02:35      1.06    0.14    0.38
  WS02001213WS02003059 CONDUIT    295.02     0  02:53      0.59    0.49    0.69
  WS02001212WS02001213 CONDUIT    294.09     0  02:54      1.19    0.45    0.39
  WS02001211WS02001212 CONDUIT    293.61     0  02:54      0.67    0.22    0.57
  WS02003072WS02003073 CONDUIT    729.80     0  02:39      1.58    1.58    0.43
  WS02003069WS02003072 CONDUIT    729.79     0  02:38      1.50    0.35    0.45
  WS02003060WS02003069 CONDUIT    729.49     0  02:38      1.75    0.29    0.40
  WS02003059WS02003060 CONDUIT    296.30     0  02:53      0.82    0.19    0.59
  HS02004901HS02004770 CONDUIT     14.45     0  02:12      0.06    0.05    0.36
  HS02004876HS02004881 CONDUIT     49.55     0  02:15      0.73    0.53    0.10
  HS02004870HS02004876 CONDUIT     39.42     0  02:16      0.50    0.03    0.11
  HS02004842HS02004848 CONDUIT      7.06     0  02:28      0.04    0.00    0.28
  HS02004837HS02004842 CONDUIT      7.30     0  02:29      0.42    0.00    0.30
  HS02004830HS02004837 CONDUIT     30.00     0  02:16      0.49    0.03    0.09
  HS02004824HS02004830 CONDUIT     30.15     0  02:17      0.53    0.04    0.08
  HS02004817HS02004824 CONDUIT     50.95     0  02:19      0.17    0.02    0.43
  HS02004770HS02004777 CONDUIT     73.49     0  02:12      0.28    0.13    0.38
  HS02004799HS02004480 CONDUIT    181.40     0  02:14      0.70    0.23    0.37
  HS02004792HS02004799 CONDUIT    165.74     0  02:13      0.80    0.10    0.30
  HS02004788HS02004792 CONDUIT     96.35     0  02:14      0.94    0.06    0.15
  HS02004785HS02004788 CONDUIT     73.13     0  02:14      0.60    0.55    0.17
  HS02004777HS02004785 CONDUIT     73.07     0  02:13      0.34    0.09    0.31
  HS02004480HS02004478 CONDUIT    214.33     0  02:14      1.10    0.90    0.28
  HS02004479HS02004480 CONDUIT     33.64     0  02:16      0.15    0.03    0.36
  HS02004862HS02004870 CONDUIT     29.01     0  02:17      0.54    0.03    0.08
  HS02004848HS02004852 CONDUIT     12.20     0  02:16      0.36    0.01    0.05
  HS02004856HS02004862 CONDUIT     19.90     0  02:16      0.40    0.02    0.07
  HS02004852HS02004856 CONDUIT     12.17     0  02:17      0.17    0.01    0.10
  HS02004802HS02004478 CONDUIT     71.64     0  02:19      0.35    0.06    0.30
  HS02004478WS02006287 CONDUIT    283.52     0  02:15      1.50    0.08    0.21
  HS02004817HS02004807 CONDUIT     52.37     0  02:21      0.14    0.03    0.56
  HS02004807HS02004802 CONDUIT     71.07     0  02:18      0.30    0.14    0.34
  YS02001759YS02001757 CONDUIT    319.11     0  02:56      0.41    0.23    1.00
  YS02001762YS02001759 CONDUIT    178.88     0  02:56      0.23    0.21    1.00
  YS02001765YS02001762 CONDUIT    176.63     0  02:57      0.23    0.17    1.00
  YS02001770YS02001767 CONDUIT    174.58     0  02:57      0.31    0.69    1.00
  YS02001774YS02001770 CONDUIT     68.76     0  02:57      0.14    0.04    1.00
  YS02001779YS02001774 CONDUIT     68.93     0  02:57      0.09    0.03    1.00
  YS02001649YS02001757 CONDUIT    521.19     0  02:55      0.66    0.32    1.00
  YS02001767YS02001765 CONDUIT    175.85     0  02:57      0.26    0.22    1.00
  YS02006561YS02001783 CONDUIT    481.32     0  02:51      1.98    0.25    0.49
  YS02001783YS02001784 CONDUIT    480.24     0  02:52      1.42    0.66    0.64
  YS02001784YS02001785 CONDUIT    481.20     0  02:52      1.53    1.12    0.60
  YS02001788YS02001790 CONDUIT    481.49     0  02:52      2.08    0.35    0.47
  YS02001790YS02001791 CONDUIT    481.52     0  02:52      2.47    0.52    0.45
  YS02001791YS02001793 CONDUIT    649.77     0  02:24      4.38    0.28    0.69
  YS02001910YS02001907 CONDUIT    157.71     0  03:04      0.49    0.09    0.85
  YS02001786YS02001788 CONDUIT    481.33     0  02:52      1.98    0.93    0.49
  YS02001915YS02001910 CONDUIT    154.52     0  03:04      0.45    0.08    0.64
  YS02001918YS02001915 CONDUIT     54.56     0  03:05      0.44    0.03    0.36
  YS02001923YS02001920 CONDUIT     48.24     0  03:01      0.53    0.02    0.18
  YS02001926YS02001923 CONDUIT     48.20     0  03:01      0.58    0.07    0.16
  YS02001929YS02001926 CONDUIT     48.23     0  03:01      0.63    0.02    0.15
  YS02001920YS02001918 CONDUIT     51.84     0  03:03      0.53    0.05    0.22
  YS02001629YS02163301 CONDUIT    125.75     0  03:17      0.16    0.15    1.00
  YS02001619YS02001622 CONDUIT    145.76     0  03:03      0.71    0.21    1.00
  YS02001622YS02001625 CONDUIT    209.88     0  03:05      0.30    0.11    1.00
  YS02001625YS02001629 CONDUIT    209.54     0  03:05      0.28    0.10    1.00
  YS02163301YS02001633 CONDUIT    125.96     0  03:17      0.16    0.12    1.00
  YS02163601YS02164001 CONDUIT    223.01     0  02:54      0.28    0.20    1.00
  YS02164001YS02001641 CONDUIT    221.46     0  02:54      0.28    0.30    1.00
  YS02001641YS02001644 CONDUIT    220.70     0  02:54      0.28    0.71    1.00
  YS02001647YS02001649 CONDUIT    349.19     0  04:07      0.44    0.18    1.00
  YS02006553YS02006556 CONDUIT    338.21     0  03:04      0.45    0.29    0.93
  YS02006556YS02006558 CONDUIT    339.70     0  03:03      0.44    0.27    0.96
  YSB6556YSB1171       CONDUIT     18.25     0  02:17      0.07    0.02    0.63
  YS02001907YS02006553 CONDUIT    336.09     0  03:04      0.37    0.40    1.00
  YS02006558YS02006561 CONDUIT    520.36     0  02:52      2.78    1.15    0.63
  YS02001633YS02163601 CONDUIT    223.20     0  02:54      0.28    0.23    1.00
  YS02001644YS02001647 CONDUIT    349.39     0  04:07      0.44    0.21    1.00
  YS02001745YS02001748 CONDUIT    273.20     0  03:22      1.53    0.11    0.93
  YS02001748YS02001751 CONDUIT    465.64     0  02:57      1.18    0.24    1.00
  YS02001751YS02001754 CONDUIT    196.35     0  02:56      1.02    0.09    1.00
  YS02001754YS02001757 CONDUIT    200.13     0  02:56      0.33    0.08    1.00
  YS02001882YS02001884 CONDUIT      5.21     0  02:07      0.06    0.01    0.58
  YS02001884YS02001887 CONDUIT     14.84     0  02:09      0.06    0.02    0.67
  YS02001890YS02001895 CONDUIT    181.57     0  02:39      0.35    0.08    0.64
  YS02001895YS02001898 CONDUIT    182.42     0  02:43      0.50    0.32    0.50
  YS02001898YS02001901 CONDUIT    181.49     0  02:45      0.39    0.12    0.58
  YS02001901YS02001904 CONDUIT    181.70     0  02:43      0.35    0.28    0.63
  YS02001904YS02001907 CONDUIT    183.20     0  02:45      0.28    0.06    0.79
  YS02001887YS02001890 CONDUIT    182.88     0  02:44      0.30    0.31    0.73
  YS02001652YS02001649 CONDUIT    221.19     0  02:52      0.34    0.11    1.00
  YS02001655YS02001652 CONDUIT    216.60     0  02:52      1.09    0.11    1.00
  YS02001658YS02001655 CONDUIT    416.92     0  02:52      1.36    0.18    1.00
  YS02001661YS02001658 CONDUIT    472.81     0  03:18      1.59    0.19    1.00
  YS02001664YS02001661 CONDUIT    434.99     0  03:48      1.34    0.14    0.71
  YSB1154YSB6556       CONDUIT     17.93     0  02:14      0.19    0.03    0.52
  YSB1174YSB1171       CONDUIT     16.15     0  02:09      0.07    0.02    0.64
  YSB1171HS02004479    CONDUIT     33.36     0  02:15      0.54    0.02    0.50
  HS02004881HS02006253 CONDUIT     55.33     0  02:15      1.91    0.01    0.04
  YS02001793JiankangQianchi CONDUIT   1202.23     0  02:22      1.94    0.10    1.00
  YS02001757CaochengTiaoxuchi CONDUIT    843.11     0  02:56      1.54    0.37    1.00
  WSF200WS02003060     CONDUIT    423.99     0  02:35      1.51    0.09    0.30
  1                    CONDUIT    731.62     0  02:40      3.06    0.25    0.34
  2                    CONDUIT      0.00     0  00:00      0.00    0.00    0.00
  3                    CONDUIT    569.53     0  02:26     10.19    0.91    0.84
  4                    CONDUIT      0.00     0  00:00      0.00    0.00    0.00
  CC-Pump-1            PUMP         0.00     0  00:00              0.00
  CC-Pump-2            PUMP         0.00     0  00:00              0.00
  JK-Pump-1            PUMP       300.00     0  02:16              1.00
  JK-Pump-2            PUMP       300.00     0  02:26              1.00
  XR-Pump-1            PUMP        95.00     0  00:00              1.00
  XR-Pump-2            PUMP        95.00     0  00:25              1.00
  XR-Pump-3            PUMP        95.00     0  02:03              1.00
  XR-Pump-4            PUMP         0.00     0  00:00              0.00
  
  
  ***************************
  Flow Classification Summary
  ***************************
  
  -------------------------------------------------------------------------------------
                      Adjusted    ---------- Fraction of Time in Flow Class ---------- 
                       /Actual         Up    Down  Sub   Sup   Up    Down  Norm  Inlet 
  Conduit               Length    Dry  Dry   Dry   Crit  Crit  Crit  Crit  Ltd   Ctrl  
  -------------------------------------------------------------------------------------
  WS02003066WSF200        1.00   0.10  0.00  0.00  0.00  0.90  0.00  0.00  0.69  0.00
  WS02006287WS02006284    1.00   0.03  0.02  0.00  0.55  0.40  0.00  0.00  0.76  0.00
  WS02006284WS02006280    1.00   0.04  0.00  0.00  0.00  0.00  0.00  0.96  0.00  0.00
  WS02006280WS02006229    1.00   0.04  0.00  0.00  0.00  0.00  0.00  0.96  0.00  0.00
  WS02006229WS02006228    1.00   0.00  0.00  0.00  1.00  0.00  0.00  0.00  0.00  0.00
  WS02006256WS02006235    1.00   0.06  0.00  0.00  0.91  0.03  0.00  0.00  0.04  0.00
  WS02006253WS02006251    1.00   0.01  0.02  0.00  0.97  0.00  0.00  0.00  0.00  0.00
  WS02006252WS02006251    1.00   1.00  0.00  0.00  0.00  0.00  0.00  0.00  0.00  0.00
  WS02006251WS02006249    1.00   0.00  0.00  0.00  1.00  0.00  0.00  0.00  0.90  0.00
  WS02006249WS02006248    1.00   0.00  0.00  0.00  0.11  0.00  0.89  0.00  0.00  0.00
  WS02006248WS02006247    1.00   0.01  0.00  0.00  0.98  0.00  0.00  0.01  0.82  0.00
  WS02006247WS02006245    1.00   0.01  0.00  0.00  0.97  0.00  0.00  0.03  0.00  0.00
  WS02006245WS02006243    1.00   0.01  0.00  0.00  0.92  0.00  0.00  0.07  0.08  0.00
  WS02006243WS02006242    1.00   0.01  0.00  0.00  0.95  0.00  0.00  0.04  0.37  0.00
  WS02006242WS02006240    1.00   0.01  0.03  0.00  0.95  0.00  0.01  0.00  0.01  0.00
  WS02006240WS02006239    1.00   0.05  0.00  0.00  0.90  0.00  0.00  0.05  0.07  0.00
  WS02006239WS02006238    1.00   0.05  0.00  0.00  0.94  0.00  0.00  0.01  0.00  0.00
  WS02006238WS02006235    1.00   0.05  0.01  0.00  0.94  0.00  0.00  0.00  0.00  0.00
  WS02006235WS02006234    1.00   0.06  0.00  0.00  0.90  0.00  0.03  0.00  0.00  0.00
  WS02006234WS02006232    1.00   0.07  0.00  0.00  0.93  0.00  0.00  0.00  0.01  0.00
  WS02006232WS02006231    1.00   0.07  0.01  0.00  0.92  0.00  0.00  0.00  0.00  0.00
  WS02006231WS02006230    1.00   0.08  0.00  0.00  0.24  0.00  0.68  0.00  0.00  0.00
  WS02006230WS02006229    1.00   0.00  0.00  0.00  0.99  0.00  0.00  0.01  0.01  0.00
  WS02006228WS02006109    1.00   0.00  0.00  0.00  1.00  0.00  0.00  0.00  0.00  0.00
  WS02006116WS02004401    1.00   0.03  0.00  0.00  0.97  0.00  0.00  0.00  0.01  0.00
  WS02006115WS02006116    1.00   0.03  0.00  0.00  0.94  0.00  0.00  0.03  0.00  0.00
  WS02006113WS02006111    1.00   0.02  0.00  0.00  0.01  0.98  0.00  0.00  0.12  0.00
  WS02006112WS02006115    1.00   0.02  0.01  0.00  0.97  0.00  0.00  0.00  0.00  0.00
  WS02006111WS02006112    1.00   0.02  0.00  0.00  0.98  0.00  0.00  0.00  0.92  0.00
  WS02006110WS02006113    1.00   0.00  0.01  0.00  0.98  0.00  0.00  0.00  0.00  0.00
  WS02006109WS02006110    1.00   0.00  0.00  0.00  0.99  0.00  0.00  0.00  0.00  0.00
  WS02004411WS02004412    1.00   0.08  0.00  0.00  0.92  0.00  0.00  0.00  0.00  0.00
  WS02004401WS02004402    1.00   0.03  0.00  0.00  0.97  0.00  0.00  0.00  0.04  0.00
  WS02004413WS02003067    1.00   0.08  0.01  0.00  0.00  0.00  0.91  0.00  0.00  0.00
  WS02004412WS02004413    1.00   0.08  0.00  0.00  0.92  0.00  0.00  0.00  0.00  0.00
  WS02004410WS02004411    1.00   0.08  0.00  0.00  0.92  0.00  0.00  0.00  0.00  0.00
  WS02004409WS02004410    1.00   0.08  0.00  0.00  0.92  0.00  0.00  0.00  0.00  0.00
  WS02004407WS02004409    1.00   0.08  0.00  0.00  0.91  0.01  0.00  0.00  0.73  0.00
  WS02004406WS02004407    1.00   0.00  0.07  0.00  0.92  0.00  0.00  0.00  0.00  0.00
  WS02004405WS02004406    1.00   0.00  0.00  0.00  1.00  0.00  0.00  0.00  0.04  0.00
  WS02004404WS02004405    1.00   0.00  0.00  0.00  1.00  0.00  0.00  0.00  0.02  0.00
  WS02004403WS02004404    1.00   0.00  0.03  0.00  0.97  0.00  0.00  0.00  0.04  0.00
  WS02004402WS02004403    1.00   0.03  0.00  0.00  0.97  0.00  0.00  0.00  0.00  0.00
  WS02004139WS02001211    1.00   0.00  0.00  0.00  1.00  0.00  0.00  0.00  0.00  0.00
  WS02004138WS02004139    1.00   0.00  0.00  0.00  1.00  0.00  0.00  0.00  1.00  0.00
  WS02003067WS02003066    1.00   0.09  0.01  0.00  0.90  0.00  0.00  0.00  0.00  0.00
  WS02001213WS02003059    1.00   0.00  0.00  0.00  1.00  0.00  0.00  0.00  0.00  0.00
  WS02001212WS02001213    1.00   0.00  0.00  0.00  0.50  0.00  0.50  0.00  0.00  0.00
  WS02001211WS02001212    1.00   0.00  0.00  0.00  1.00  0.00  0.00  0.00  0.00  0.00
  WS02003072WS02003073    1.00   0.00  0.00  0.00  0.00  0.00  0.00  1.00  0.00  0.00
  WS02003069WS02003072    1.00   0.00  0.00  0.00  1.00  0.00  0.00  0.00  0.43  0.00
  WS02003060WS02003069    1.00   0.00  0.00  0.00  0.99  0.01  0.00  0.00  0.27  0.00
  WS02003059WS02003060    1.00   0.00  0.00  0.00  1.00  0.00  0.00  0.00  0.02  0.00
  HS02004901HS02004770    1.00   0.03  0.00  0.00  0.96  0.00  0.00  0.00  0.02  0.00
  HS02004876HS02004881    1.00   0.01  0.00  0.00  0.99  0.00  0.00  0.00  0.00  0.00
  HS02004870HS02004876    1.00   0.00  0.00  0.00  1.00  0.00  0.00  0.00  0.95  0.00
  HS02004842HS02004848    1.00   0.00  0.04  0.00  0.96  0.00  0.00  0.00  0.67  0.00
  HS02004837HS02004842    1.00   0.00  0.00  0.00  1.00  0.00  0.00  0.00  0.11  0.00
  HS02004830HS02004837    1.00   0.00  0.00  0.00  1.00  0.00  0.00  0.00  0.99  0.00
  HS02004824HS02004830    1.00   0.00  0.00  0.00  1.00  0.00  0.00  0.00  0.00  0.00
  HS02004817HS02004824    1.00   0.00  0.00  0.00  1.00  0.00  0.00  0.00  1.00  0.00
  HS02004770HS02004777    1.00   0.00  0.04  0.00  0.96  0.00  0.00  0.00  0.07  0.00
  HS02004799HS02004480    1.00   0.00  0.01  0.00  0.95  0.00  0.04  0.00  0.00  0.00
  HS02004792HS02004799    1.00   0.00  0.00  0.00  1.00  0.00  0.00  0.00  0.98  0.00
  HS02004788HS02004792    1.00   0.00  0.00  0.00  1.00  0.00  0.00  0.00  0.98  0.00
  HS02004785HS02004788    1.00   0.00  0.00  0.00  1.00  0.00  0.00  0.00  0.00  0.00
  HS02004777HS02004785    1.00   0.00  0.00  0.00  1.00  0.00  0.00  0.00  0.20  0.00
  HS02004480HS02004478    1.00   0.04  0.00  0.00  0.62  0.00  0.00  0.34  0.00  0.00
  HS02004479HS02004480    1.00   0.01  0.00  0.00  0.99  0.00  0.00  0.00  0.15  0.00
  HS02004862HS02004870    1.00   0.00  0.00  0.00  1.00  0.00  0.00  0.00  0.06  0.00
  HS02004848HS02004852    1.00   0.04  0.00  0.00  0.96  0.00  0.00  0.00  0.71  0.00
  HS02004856HS02004862    1.00   0.00  0.07  0.00  0.93  0.00  0.00  0.00  0.75  0.00
  HS02004852HS02004856    1.00   0.04  0.01  0.00  0.96  0.00  0.00  0.00  0.83  0.00
  HS02004802HS02004478    1.00   0.04  0.01  0.00  0.96  0.00  0.00  0.00  0.01  0.00
  HS02004478WS02006287    1.00   0.05  0.00  0.00  0.79  0.16  0.00  0.00  0.74  0.00
  HS02004817HS02004807    1.00   0.00  0.04  0.00  0.96  0.00  0.00  0.00  0.00  0.00
  HS02004807HS02004802    1.00   0.04  0.00  0.00  0.96  0.00  0.00  0.00  0.01  0.00
  YS02001759YS02001757    1.00   0.00  0.00  0.00  1.00  0.00  0.00  0.00  0.17  0.00
  YS02001762YS02001759    1.00   0.00  0.00  0.00  1.00  0.00  0.00  0.00  0.04  0.00
  YS02001765YS02001762    1.00   0.00  0.00  0.00  1.00  0.00  0.00  0.00  0.21  0.00
  YS02001770YS02001767    1.00   0.00  0.00  0.00  1.00  0.00  0.00  0.00  0.00  0.00
  YS02001774YS02001770    1.00   0.00  0.05  0.00  0.95  0.00  0.00  0.00  0.06  0.00
  YS02001779YS02001774    1.00   0.00  0.00  0.00  1.00  0.00  0.00  0.00  0.26  0.00
  YS02001649YS02001757    1.00   0.00  0.00  0.00  1.00  0.00  0.00  0.00  0.19  0.00
  YS02001767YS02001765    1.00   0.00  0.00  0.00  1.00  0.00  0.00  0.00  0.01  0.00
  YS02006561YS02001783    1.00   0.07  0.00  0.00  0.00  0.93  0.00  0.00  0.60  0.00
  YS02001783YS02001784    1.00   0.00  0.07  0.00  0.93  0.00  0.00  0.00  0.00  0.00
  YS02001784YS02001785    1.00   0.00  0.00  0.00  1.00  0.00  0.00  0.00  0.24  0.00
  YS02001788YS02001790    1.00   0.00  0.00  0.00  0.07  0.93  0.00  0.00  0.69  0.00
  YS02001790YS02001791    1.00   0.00  0.00  0.00  0.00  1.00  0.00  0.00  0.65  0.00
  YS02001791YS02001793    1.00   0.00  0.00  0.00  0.44  0.56  0.00  0.00  0.38  0.00
  YS02001910YS02001907    1.00   0.00  0.00  0.00  0.99  0.00  0.00  0.01  0.13  0.00
  YS02001786YS02001788    1.00   0.00  0.00  0.00  0.08  0.92  0.00  0.00  0.00  0.00
  YS02001915YS02001910    1.00   0.00  0.00  0.00  1.00  0.00  0.00  0.00  0.23  0.00
  YS02001918YS02001915    1.00   0.00  0.00  0.00  0.99  0.00  0.00  0.00  0.68  0.00
  YS02001923YS02001920    1.00   0.00  0.00  0.00  1.00  0.00  0.00  0.00  1.00  0.00
  YS02001926YS02001923    1.00   0.00  0.02  0.00  0.00  0.00  0.98  0.00  0.00  0.00
  YS02001929YS02001926    1.00   0.00  0.04  0.00  0.96  0.00  0.00  0.00  0.87  0.00
  YS02001920YS02001918    1.00   0.00  0.00  0.00  1.00  0.00  0.00  0.00  0.00  0.00
  YS02001629YS02163301    1.00   0.06  0.01  0.00  0.94  0.00  0.00  0.00  0.00  0.00
  YS02001619YS02001622    1.00   0.03  0.00  0.00  0.97  0.00  0.00  0.00  0.00  0.00
  YS02001622YS02001625    1.00   0.04  0.00  0.00  0.96  0.00  0.00  0.00  0.12  0.00
  YS02001625YS02001629    1.00   0.04  0.04  0.00  0.91  0.00  0.01  0.00  0.00  0.00
  YS02163301YS02001633    1.00   0.00  0.06  0.00  0.94  0.00  0.00  0.00  0.00  0.00
  YS02163601YS02164001    1.00   0.00  0.02  0.00  0.98  0.00  0.00  0.00  0.00  0.00
  YS02164001YS02001641    1.00   0.00  0.02  0.00  0.98  0.00  0.00  0.00  0.07  0.00
  YS02001641YS02001644    1.00   0.00  0.00  0.00  1.00  0.00  0.00  0.00  0.00  0.00
  YS02001647YS02001649    1.00   0.00  0.07  0.00  0.93  0.00  0.00  0.00  0.01  0.00
  YS02006553YS02006556    1.00   0.00  0.00  0.00  1.00  0.00  0.00  0.00  0.03  0.00
  YS02006556YS02006558    1.00   0.00  0.00  0.00  1.00  0.00  0.00  0.00  0.00  0.00
  YSB6556YSB1171          1.00   0.01  0.02  0.00  0.97  0.00  0.00  0.00  0.00  0.00
  YS02001907YS02006553    1.00   0.00  0.01  0.00  0.99  0.00  0.00  0.00  0.00  0.00
  YS02006558YS02006561    1.00   0.07  0.00  0.00  0.00  0.93  0.00  0.00  0.60  0.00
  YS02001633YS02163601    1.00   0.00  0.00  0.00  1.00  0.00  0.00  0.00  0.19  0.00
  YS02001644YS02001647    1.00   0.00  0.07  0.00  0.93  0.00  0.00  0.00  0.00  0.00
  YS02001745YS02001748    1.00   0.00  0.00  0.00  0.88  0.01  0.00  0.11  0.06  0.00
  YS02001748YS02001751    1.00   0.00  0.00  0.00  0.97  0.03  0.00  0.00  0.23  0.00
  YS02001751YS02001754    1.00   0.00  0.00  0.00  0.92  0.00  0.00  0.08  0.01  0.00
  YS02001754YS02001757    1.00   0.00  0.00  0.00  1.00  0.00  0.00  0.00  0.26  0.00
  YS02001882YS02001884    1.00   0.05  0.01  0.00  0.94  0.00  0.00  0.00  0.00  0.00
  YS02001884YS02001887    1.00   0.02  0.01  0.00  0.97  0.00  0.00  0.00  0.00  0.00
  YS02001890YS02001895    1.00   0.00  0.06  0.00  0.94  0.00  0.00  0.00  0.00  0.00
  YS02001895YS02001898    1.00   0.06  0.00  0.00  0.93  0.00  0.01  0.00  0.00  0.00
  YS02001898YS02001901    1.00   0.06  0.00  0.00  0.94  0.00  0.00  0.00  0.02  0.00
  YS02001901YS02001904    1.00   0.06  0.00  0.00  0.94  0.00  0.00  0.00  0.00  0.00
  YS02001904YS02001907    1.00   0.00  0.06  0.00  0.94  0.00  0.00  0.00  0.00  0.00
  YS02001887YS02001890    1.00   0.00  0.00  0.00  0.99  0.00  0.01  0.00  0.00  0.00
  YS02001652YS02001649    1.00   0.00  0.00  0.00  1.00  0.00  0.00  0.00  0.25  0.00
  YS02001655YS02001652    1.00   0.00  0.00  0.00  0.92  0.00  0.00  0.08  0.01  0.00
  YS02001658YS02001655    1.00   0.00  0.05  0.00  0.92  0.04  0.00  0.00  0.08  0.00
  YS02001661YS02001658    1.00   0.05  0.00  0.00  0.88  0.07  0.00  0.00  0.08  0.00
  YS02001664YS02001661    1.00   0.03  0.00  0.00  0.81  0.15  0.00  0.00  0.29  0.00
  YSB1154YSB6556          1.00   0.03  0.00  0.00  0.97  0.00  0.00  0.00  0.02  0.00
  YSB1174YSB1171          1.00   0.01  0.01  0.00  0.97  0.00  0.00  0.00  0.00  0.00
  YSB1171HS02004479       1.00   0.01  0.00  0.00  0.99  0.00  0.00  0.00  0.13  0.00
  HS02004881HS02006253    1.00   0.01  0.00  0.00  0.00  0.00  0.00  0.99  0.00  0.00
  YS02001793JiankangQianchi    1.00   0.00  0.00  0.00  1.00  0.00  0.00  0.00  0.57  0.00
  YS02001757CaochengTiaoxuchi    1.00   0.00  0.09  0.00  0.91  0.00  0.00  0.00  0.00  0.00
  WSF200WS02003060        1.00   0.00  0.10  0.00  0.90  0.00  0.00  0.00  0.62  0.00
  1                       1.00   0.00  0.00  0.00  0.00  1.00  0.00  0.00  0.31  0.00
  2                       1.00   1.00  0.00  0.00  0.00  0.00  0.00  0.00  0.00  0.00
  3                       1.00   0.18  0.00  0.00  0.00  0.82  0.00  0.00  0.02  0.00
  4                       1.00   1.00  0.00  0.00  0.00  0.00  0.00  0.00  0.00  0.00
  
  
  *************************
  Conduit Surcharge Summary
  *************************
  
  ----------------------------------------------------------------------------
                                                           Hours        Hours 
                         --------- Hours Full --------   Above Full   Capacity
  Conduit                Both Ends  Upstream  Dnstream   Normal Flow   Limited
  ----------------------------------------------------------------------------
  WS02006229WS02006228        0.24      0.28      0.24      0.74         0.24
  WS02006256WS02006235        3.12      3.15      5.63      3.38         0.01
  WS02006235WS02006234        0.01      0.01      0.01      3.18         0.01
  WS02006231WS02006230        0.01      0.01      0.01      3.46         0.01
  WS02006230WS02006229        0.45      0.51      0.45      4.42         0.45
  WS02006228WS02006109        0.25      0.36      0.25      1.18         0.25
  WS02006111WS02006112        0.01      0.01      0.83      0.01         0.01
  WS02006110WS02006113        0.01      0.01      0.32      0.01         0.01
  WS02006109WS02006110        0.01      0.01      0.36      0.01         0.01
  WS02004404WS02004405        0.01      0.01      0.01      3.26         0.01
  WS02003072WS02003073        0.01      0.01      0.01      2.21         0.01
  YS02001759YS02001757        5.43      5.43      5.49      0.01         0.01
  YS02001762YS02001759        5.40      5.40      5.43      0.01         0.01
  YS02001765YS02001762        5.37      5.37      5.40      0.01         0.01
  YS02001770YS02001767        5.34      5.35      5.35      0.01         0.45
  YS02001774YS02001770        5.33      5.33      5.39      0.01         0.01
  YS02001779YS02001774        4.92      4.92      5.39      0.01         0.01
  YS02001649YS02001757        5.41      5.41      5.49      0.01         0.01
  YS02001767YS02001765        5.35      5.35      5.37      0.01         0.02
  YS02001784YS02001785        0.01      0.01      0.01      0.71         0.01
  YS02001791YS02001793        0.01      0.01      0.20      0.01         0.01
  YS02001629YS02163301        5.32      5.32      5.34      0.01         0.01
  YS02001619YS02001622        4.56      4.56      4.64      0.01         0.01
  YS02001622YS02001625        4.64      4.64      5.27      0.01         0.01
  YS02001625YS02001629        4.60      4.60      5.27      0.01         0.01
  YS02163301YS02001633        5.34      5.34      5.38      0.01         0.01
  YS02163601YS02164001        5.37      5.37      5.41      0.01         0.01
  YS02164001YS02001641        5.37      5.37      5.39      0.01         0.01
  YS02001641YS02001644        5.38      5.39      5.39      0.01         0.49
  YS02001647YS02001649        5.22      5.22      5.41      0.01         0.01
  YS02001907YS02006553        0.73      0.73      0.97      0.01         0.01
  YS02006558YS02006561        0.01      0.01      0.01      0.46         0.01
  YS02001633YS02163601        5.37      5.37      5.41      0.01         0.01
  YS02001644YS02001647        5.22      5.22      5.39      0.01         0.01
  YS02001745YS02001748        0.01      0.01      4.27      0.01         0.01
  YS02001748YS02001751        4.40      4.40      4.64      0.01         0.01
  YS02001751YS02001754        4.64      4.64      5.02      0.01         0.01
  YS02001754YS02001757        5.21      5.21      5.49      0.01         0.01
  YS02001652YS02001649        5.24      5.24      5.41      0.01         0.01
  YS02001655YS02001652        4.67      4.67      5.17      0.01         0.01
  YS02001658YS02001655        4.31      4.31      4.67      0.01         0.01
  YS02001661YS02001658        0.03      0.03      4.31      0.01         0.01
  YS02001664YS02001661        0.01      0.01      0.22      0.01         0.01
  YS02001793JiankangQianchi        0.01      0.01      7.82      0.01         0.01
  YS02001757CaochengTiaoxuchi        4.42      4.42      5.49      0.01         0.01
  3                           0.01      0.01      0.01      0.01         0.01
  
  
  ***************
  Pumping Summary
  ***************
  
  ---------------------------------------------------------------------------------------------------------
                                                  Min       Avg       Max     Total     Power    % Time Off
                        Percent   Number of      Flow      Flow      Flow    Volume     Usage    Pump Curve
  Pump                 Utilized   Start-Ups       LPS       LPS       LPS  10^6 ltr     Kw-hr    Low   High
  ---------------------------------------------------------------------------------------------------------
  CC-Pump-1                0.00           0      0.00      0.00      0.00     0.000      0.00    0.0    0.0
  CC-Pump-2                0.00           0      0.00      0.00      0.00     0.000      0.00    0.0    0.0
  JK-Pump-1               43.37          11      0.00    300.00    300.00     3.669     29.14    0.0    0.0
  JK-Pump-2                7.02          13      0.00    300.00    300.00     0.594      4.24    0.0    0.0
  XR-Pump-1              100.00           1      0.00     95.00     95.00     2.679     17.05    0.0    0.0
  XR-Pump-2               94.70           1      0.00     95.00     95.00     2.537     15.62    0.0    0.0
  XR-Pump-3               66.59           2      0.00     95.00     95.00     1.784      9.88    0.0    0.0
  XR-Pump-4                0.00           0      0.00      0.00      0.00     0.000      0.00    0.0    0.0
  

  Analysis begun on:  Thu Jan  6 00:12:26 2022
  Analysis ended on:  Thu Jan  6 00:12:28 2022
  Total elapsed time: 00:00:02