
  EPA STORM WATER MANAGEMENT MODEL - VERSION 5.1 (Build 5.3.0.dev0)
  --------------------------------------------------------------

  WARNING 04: minimum elevation drop used for Conduit WS02004404WS02004405
  WARNING 03: negative offset ignored for Link YS02001904YS02001907
  
  *********************************************************
  NOTE: The summary statistics displayed in this report are
  based on results found at every computational time step,  
  not just on results from each reporting time step.
  *********************************************************
  
  ****************
  Analysis Options
  ****************
  Flow Units ............... LPS
  Process Models:
    Rainfall/Runoff ........ YES
    RDII ................... NO
    Snowmelt ............... NO
    Groundwater ............ NO
    Flow Routing ........... YES
    Ponding Allowed ........ NO
    Water Quality .......... NO
  Infiltration Method ...... HORTON
  Flow Routing Method ...... DYNWAVE
  Surcharge Method ......... EXTRAN
  Starting Date ............ 08/28/2015 08:00:00
  Ending Date .............. 08/28/2015 15:50:00
  Antecedent Dry Days ...... 8.0
  Report Time Step ......... 00:01:00
  Wet Time Step ............ 00:01:00
  Dry Time Step ............ 00:01:00
  Routing Time Step ........ 5.00 sec
  Variable Time Step ....... YES
  Maximum Trials ........... 8
  Number of Threads ........ 4
  Head Tolerance ........... 0.001500 m
  
  
  **************************        Volume         Depth
  Runoff Quantity Continuity     hectare-m            mm
  **************************     ---------       -------
  Total Precipitation ......         2.663         5.830
  Evaporation Loss .........         0.000         0.000
  Infiltration Loss ........         0.668         1.463
  Surface Runoff ...........         1.113         2.436
  Final Storage ............         0.882         1.932
  Continuity Error (%) .....        -0.018
  
  
  **************************        Volume        Volume
  Flow Routing Continuity        hectare-m      10^6 ltr
  **************************     ---------     ---------
  Dry Weather Inflow .......         0.616         6.165
  Wet Weather Inflow .......         1.112        11.120
  Groundwater Inflow .......         0.000         0.000
  RDII Inflow ..............         0.000         0.000
  External Inflow ..........         0.102         1.024
  External Outflow .........         1.158        11.580
  Flooding Loss ............         0.120         1.199
  Evaporation Loss .........         0.000         0.000
  Exfiltration Loss ........         0.000         0.000
  Initial Stored Volume ....         0.076         0.761
  Final Stored Volume ......         0.626         6.264
  Continuity Error (%) .....         0.138
  
  
  *************************
  Highest Continuity Errors
  *************************
  Node HS02004842 (28.71%)
  Node YS02001774 (27.60%)
  Node YS02001884 (23.11%)
  Node YSB1171 (7.07%)
  Node YS02001625 (5.62%)
  
  
  ***************************
  Time-Step Critical Elements
  ***************************
  Link 3 (76.11%)
  Link WS02006280WS02006229 (10.28%)
  Link WS02006238WS02006235 (3.80%)
  Link YS02001791YS02001793 (3.01%)
  
  
  ********************************
  Highest Flow Instability Indexes
  ********************************
  Link WS02006113WS02006111 (33)
  Link WS02006111WS02006112 (16)
  Link YS02164001YS02001641 (9)
  Link YS02001779YS02001774 (9)
  Link YS02001774YS02001770 (9)
  
  
  *************************
  Routing Time Step Summary
  *************************
  Minimum Time Step           :     0.51 sec
  Average Time Step           :     1.54 sec
  Maximum Time Step           :     5.00 sec
  Percent in Steady State     :    -0.00
  Average Iterations per Step :     3.06
  Percent Not Converging      :    11.99
  
  
  ***************************
  Subcatchment Runoff Summary
  ***************************
  
  ------------------------------------------------------------------------------------------------------------------------------
                            Total      Total      Total      Total     Imperv       Perv      Total       Total     Peak  Runoff
                           Precip      Runon       Evap      Infil     Runoff     Runoff     Runoff      Runoff   Runoff   Coeff
  Subcatchment                 mm         mm         mm         mm         mm         mm         mm    10^6 ltr      LPS
  ------------------------------------------------------------------------------------------------------------------------------
  sub0                       5.83       0.00       0.00       0.41       4.16       0.00       4.16        0.00     1.37   0.713
  sub1                       5.83       0.00       0.00       0.64       3.93       0.00       3.93        0.03     7.19   0.675
  sub2                       5.83       0.00       0.00       2.16       2.77       0.00       2.77        0.03     6.37   0.475
  sub3                       5.83       0.00       0.00       2.16       2.73       0.00       2.73        0.06    13.12   0.469
  sub4                       5.83       0.00       0.00       0.64       3.80       0.00       3.80        0.08    14.74   0.651
  sub5                       5.83       0.00       0.00       0.41       4.11       0.00       4.11        0.05    12.79   0.705
  sub7                       5.83       0.00       0.00       0.52       4.05       0.00       4.05        0.01     4.51   0.695
  sub8                       5.83       0.00       0.00       0.52       4.04       0.00       4.04        0.03     7.96   0.693
  sub9                       5.83       0.00       0.00       0.52       4.04       0.00       4.04        0.02     5.90   0.693
  sub10                      5.83       0.00       0.00       0.47       4.07       0.00       4.07        0.04    12.76   0.699
  sub11                      5.83       0.00       0.00       0.47       4.09       0.00       4.09        0.05    14.97   0.701
  sub12                      5.83       0.00       0.00       0.76       3.88       0.00       3.88        0.03    12.68   0.666
  sub14                      5.83       0.00       0.00       0.52       4.04       0.00       4.04        0.04    11.53   0.693
  sub15                      5.83       0.00       0.00       1.75       3.10       0.00       3.10        0.05    15.64   0.532
  sub16                      5.83       0.00       0.00       1.92       2.99       0.00       2.99        0.03    11.14   0.512
  sub17                      5.83       0.00       0.00       1.87       3.03       0.00       3.03        0.03     9.00   0.520
  sub22                      5.83       0.00       0.00       2.51       2.53       0.00       2.53        0.16    51.19   0.435
  sub23                      5.83       0.00       0.00       2.16       2.80       0.00       2.80        0.13    43.62   0.481
  sub60                      5.83       0.00       0.00       0.70       2.71       0.00       2.71        0.82    76.21   0.465
  sub61                      5.83       0.00       0.00       0.99       2.90       0.00       2.90        0.90    95.28   0.498
  sub62                      5.83       0.00       0.00       0.47       3.11       0.00       3.11        0.96    97.52   0.534
  sub63                      5.83       0.00       0.00       1.69       2.59       0.00       2.59        0.78    88.77   0.444
  sub64                      5.83       0.00       0.00       0.87       2.59       0.00       2.59        0.79    72.36   0.444
  sub65                      5.83       0.00       0.00       0.76       2.62       0.00       2.62        0.81    73.39   0.450
  sub66                      5.83       0.00       0.00       1.69       2.26       0.00       2.26        0.69    66.37   0.388
  sub67                      5.83       0.00       0.00       0.47       3.43       0.00       3.43        1.06   124.64   0.588
  sub68                      5.83       0.00       0.00       0.82       3.09       0.00       3.09        0.95   105.22   0.530
  sub69                      5.83       0.00       0.00       0.87       3.34       0.00       3.34        0.78   104.02   0.573
  sub70                      5.83       3.41       0.00       3.14       4.09       0.00       4.09        0.94    84.08   0.442
  sub71                      5.83       0.00       0.00       0.47       2.97       0.00       2.97        0.70    68.20   0.510
  sub72                      5.83       0.00       0.00       0.41       2.09       0.00       2.09        0.43    31.96   0.358
  sub73                      5.83       3.98       0.00       3.33       4.15       0.00       4.15        0.97    72.10   0.423
  sub74                      5.83       0.00       0.00       4.37       1.01       0.00       1.01        0.40    57.95   0.173
  
  
  ******************
  Node Depth Summary
  ******************
  
  ---------------------------------------------------------------------------------
                                 Average  Maximum  Maximum  Time of Max    Reported
                                   Depth    Depth      HGL   Occurrence   Max Depth
  Node                 Type       Meters   Meters   Meters  days hr:min      Meters
  ---------------------------------------------------------------------------------
  WS02001211           JUNCTION     0.67     0.70     5.54     0  02:48        0.70
  WS02001212           JUNCTION     0.39     0.42     5.48     0  02:47        0.42
  WS02001213           JUNCTION     0.60     0.66     5.42     0  02:45        0.66
  WS02003069           JUNCTION     0.37     0.47     5.05     0  02:44        0.47
  WS02003072           JUNCTION     0.44     0.54     4.91     0  02:45        0.54
  WS02003073           JUNCTION     0.26     0.32     4.39     0  02:46        0.32
  WS02003060           JUNCTION     0.33     0.42     5.35     0  02:44        0.42
  WS02003066           JUNCTION     0.17     0.25     5.80     0  02:42        0.25
  WS02003059           JUNCTION     0.65     0.71     5.40     0  02:45        0.71
  WS02003067           JUNCTION     0.43     0.61     5.93     0  02:42        0.61
  WS02004401           JUNCTION     0.50     0.70     6.70     0  02:38        0.70
  WS02004402           JUNCTION     0.53     0.73     6.69     0  02:38        0.73
  WS02004403           JUNCTION     0.56     0.75     6.68     0  02:38        0.75
  WS02004404           JUNCTION     0.63     0.83     6.68     0  02:37        0.83
  WS02004406           JUNCTION     0.65     0.84     6.67     0  02:37        0.84
  WS02004409           JUNCTION     0.31     0.52     6.29     0  02:41        0.52
  WS02004410           JUNCTION     0.34     0.54     6.26     0  02:41        0.54
  WS02004411           JUNCTION     0.36     0.56     6.24     0  02:41        0.56
  WS02004412           JUNCTION     0.38     0.57     6.21     0  02:41        0.57
  WS02004413           JUNCTION     0.53     0.74     6.21     0  02:41        0.74
  WS02004405           JUNCTION     0.63     0.83     6.68     0  02:37        0.83
  WS02006109           JUNCTION     0.55     0.77     7.39     0  02:30        0.77
  WS02006110           JUNCTION     0.57     0.77     7.36     0  02:30        0.77
  WS02006111           JUNCTION     0.14     0.23     6.94     0  02:32        0.23
  WS02006112           JUNCTION     0.64     0.87     6.75     0  02:37        0.87
  WS02006113           JUNCTION     0.21     0.36     7.25     0  02:32        0.36
  WS02006115           JUNCTION     0.38     0.59     6.73     0  02:37        0.59
  WS02006116           JUNCTION     0.46     0.67     6.71     0  02:37        0.67
  WS02006230           JUNCTION     0.46     0.70     7.45     0  02:31        0.70
  WS02006231           JUNCTION     0.26     0.39     7.51     0  02:34        0.39
  WS02006232           JUNCTION     0.37     0.51     7.55     0  02:35        0.51
  WS02006234           JUNCTION     0.27     0.40     7.56     0  02:34        0.40
  WS02006235           JUNCTION     0.30     0.43     7.59     0  02:34        0.43
  WS02006238           JUNCTION     0.32     0.45     7.59     0  02:35        0.45
  WS02006240           JUNCTION     0.18     0.30     7.59     0  02:34        0.30
  WS02006242           JUNCTION     0.21     0.33     7.60     0  02:35        0.33
  WS02006243           JUNCTION     0.09     0.18     7.60     0  02:34        0.18
  WS02006245           JUNCTION     0.07     0.16     7.65     0  02:22        0.16
  WS02006247           JUNCTION     0.08     0.19     7.69     0  02:21        0.19
  WS02006248           JUNCTION     0.05     0.14     7.73     0  02:20        0.14
  WS02006249           JUNCTION     0.08     0.19     7.79     0  02:20        0.19
  WS02006239           JUNCTION     0.26     0.38     7.59     0  02:34        0.38
  WS02006251           JUNCTION     0.06     0.16     7.83     0  02:19        0.16
  WS02006252           JUNCTION     0.00     0.00     8.24     0  00:00        0.00
  WS02006253           JUNCTION     0.10     0.22     7.87     0  02:19        0.22
  WS02006256           JUNCTION     0.90     1.16     8.10     0  02:22        1.12
  WS02004138           JUNCTION     0.16     0.17     7.42     0  07:22        0.17
  WS02004407           JUNCTION     0.14     0.24     6.55     0  02:38        0.24
  WS02006228           JUNCTION     0.53     0.77     7.42     0  02:30        0.77
  WS02006229           JUNCTION     0.49     0.74     7.43     0  02:30        0.74
  WS02006280           JUNCTION     0.06     0.14     8.41     0  02:19        0.14
  WS02006284           JUNCTION     0.36     0.48     8.88     0  02:19        0.48
  WS02006287           JUNCTION     0.09     0.21     9.16     0  02:19        0.21
  WSF200               JUNCTION     0.14     0.23     5.46     0  02:42        0.23
  HS02004901           JUNCTION     0.12     0.23    10.05     0  02:16        0.23
  HS02004881           JUNCTION     0.01     0.02     9.05     0  02:18        0.02
  HS02004876           JUNCTION     0.04     0.10     9.13     0  02:17        0.10
  HS02004870           JUNCTION     0.01     0.04     9.33     0  02:19        0.04
  HS02004862           JUNCTION     0.02     0.05     9.43     0  02:20        0.05
  HS02004856           JUNCTION     0.07     0.10     9.53     0  02:19        0.10
  HS02004852           JUNCTION     0.01     0.03     9.54     0  02:20        0.03
  HS02004848           JUNCTION     0.01     0.03     9.63     0  02:19        0.03
  HS02004842           JUNCTION     0.33     0.36     9.63     0  02:18        0.36
  HS02004837           JUNCTION     0.03     0.05     9.63     0  02:18        0.05
  HS02004830           JUNCTION     0.04     0.06     9.53     0  02:19        0.06
  HS02004824           JUNCTION     0.02     0.04     9.44     0  02:22        0.04
  HS02004817           JUNCTION     0.43     0.52     9.37     0  02:19        0.52
  HS02004807           JUNCTION     0.12     0.20     9.37     0  02:19        0.20
  HS02004802           JUNCTION     0.15     0.23     9.36     0  02:19        0.23
  HS02004799           JUNCTION     0.11     0.25     9.46     0  02:17        0.25
  HS02004792           JUNCTION     0.03     0.10     9.62     0  02:16        0.10
  HS02004788           JUNCTION     0.02     0.07     9.97     0  02:17        0.07
  HS02004785           JUNCTION     0.04     0.13    10.03     0  02:17        0.13
  HS02004777           JUNCTION     0.14     0.25    10.05     0  02:16        0.25
  HS02004770           JUNCTION     0.11     0.22    10.05     0  02:16        0.22
  HS02004480           JUNCTION     0.07     0.20     9.44     0  02:17        0.20
  HS02004479           JUNCTION     0.11     0.23     9.44     0  02:17        0.23
  HS02004478           JUNCTION     0.06     0.12     9.35     0  02:18        0.12
  YS02001745           JUNCTION     0.41     0.85     8.36     0  05:32        0.84
  YS02001748           JUNCTION     0.74     1.28     8.36     0  05:35        1.28
  YS02001751           JUNCTION     0.92     1.48     8.36     0  05:35        1.48
  YS02001754           JUNCTION     1.16     1.75     8.36     0  05:35        1.75
  YS02001762           JUNCTION     1.36     1.97     8.37     0  05:21        1.96
  YS02001765           JUNCTION     1.31     1.92     8.37     0  05:21        1.91
  YS02001767           JUNCTION     1.28     1.89     8.38     0  05:21        1.87
  YS02001770           JUNCTION     1.27     1.89     8.38     0  05:21        1.87
  YS02001774           JUNCTION     1.34     1.96     8.38     0  05:21        1.94
  YS02001779           JUNCTION     1.09     1.68     8.37     0  05:21        1.68
  YS02001882           JUNCTION     0.31     0.46     7.17     0  02:52        0.46
  YS02001884           JUNCTION     0.40     0.55     7.17     0  02:52        0.55
  YS02001759           JUNCTION     1.39     2.00     8.36     0  05:21        2.00
  YS02001887           JUNCTION     0.48     0.63     7.17     0  02:52        0.63
  YS02001890           JUNCTION     0.51     0.66     7.17     0  02:53        0.66
  YS02001898           JUNCTION     0.28     0.42     7.15     0  02:52        0.42
  YS02001901           JUNCTION     0.39     0.54     7.15     0  02:52        0.54
  YS02001904           JUNCTION     0.37     0.52     7.15     0  02:52        0.52
  YS02001907           JUNCTION     0.70     0.86     7.15     0  02:55        0.86
  YS02001910           JUNCTION     0.49     0.64     7.15     0  02:51        0.64
  YS02001915           JUNCTION     0.29     0.43     7.15     0  02:51        0.43
  YS02001918           JUNCTION     0.08     0.10     7.16     0  03:03        0.10
  YS02001619           JUNCTION     0.88     1.44     8.37     0  05:21        1.43
  YS02001629           JUNCTION     1.22     1.81     8.36     0  05:21        1.81
  YS02001641           JUNCTION     1.33     1.92     8.35     0  05:21        1.92
  YS02001644           JUNCTION     1.33     1.92     8.35     0  05:21        1.92
  YS02001652           JUNCTION     1.18     1.76     8.36     0  05:35        1.76
  YS02001655           JUNCTION     0.95     1.61     8.46     0  03:41        1.51
  YS02001920           JUNCTION     0.18     0.20     7.21     0  03:02        0.20
  YS02001923           JUNCTION     0.07     0.08     7.34     0  03:02        0.08
  YS02001926           JUNCTION     0.14     0.17     7.62     0  03:01        0.17
  YS02001929           JUNCTION     0.07     0.09     7.78     0  03:01        0.09
  YS02001658           JUNCTION     0.69     1.22     8.36     0  05:35        1.22
  YS02001661           JUNCTION     0.50     0.96     8.36     0  05:29        0.96
  YS02001664           JUNCTION     0.20     0.44     8.37     0  05:29        0.44
  YS02001622           JUNCTION     0.90     1.46     8.37     0  05:21        1.45
  YS02001633           JUNCTION     1.31     1.90     8.36     0  05:21        1.90
  YS02001649           JUNCTION     1.37     1.97     8.36     0  05:36        1.97
  YS02001757           JUNCTION     1.49     2.10     8.36     0  05:35        2.10
  YS02001895           JUNCTION     0.27     0.41     7.16     0  02:53        0.41
  YS02001625           JUNCTION     1.18     1.76     8.36     0  05:21        1.75
  YS02163301           JUNCTION     1.25     1.84     8.36     0  05:21        1.84
  YS02163601           JUNCTION     1.37     1.97     8.36     0  05:21        1.96
  YS02164001           JUNCTION     1.31     1.90     8.36     0  05:21        1.90
  YS02001647           JUNCTION     1.16     1.75     8.36     0  05:36        1.75
  YSB1154              JUNCTION     0.25     0.38     9.44     0  02:17        0.38
  YSB6556              JUNCTION     0.14     0.27     9.44     0  02:17        0.27
  YSB1174              JUNCTION     0.20     0.33     9.44     0  02:17        0.33
  YSB1171              JUNCTION     0.40     0.53     9.44     0  02:17        0.53
  YS02006553           JUNCTION     0.71     0.87     7.15     0  02:54        0.87
  YS02006561           JUNCTION     0.15     0.22     6.88     0  02:55        0.22
  YS02006556           JUNCTION     0.68     0.84     7.15     0  02:55        0.84
  YS02006558           JUNCTION     0.72     0.88     7.15     0  02:55        0.88
  YS02001783           JUNCTION     0.26     0.40     6.54     0  02:55        0.40
  YS02001784           JUNCTION     0.29     0.43     6.50     0  02:54        0.43
  YS02001786           JUNCTION     0.25     0.36     6.39     0  02:55        0.36
  YS02001788           JUNCTION     0.18     0.27     6.25     0  02:56        0.27
  YS02001790           JUNCTION     0.22     0.33     5.98     0  02:56        0.33
  YS02001791           JUNCTION     0.14     0.28     5.75     0  03:02        0.23
  YS02001793           JUNCTION     0.24     2.07     6.90     0  03:02        1.59
  WS02004139           JUNCTION     0.62     0.64     5.55     0  02:48        0.64
  WSC                  OUTFALL      0.26     0.32     0.99     0  02:46        0.32
  3                    OUTFALL      0.08     0.14     6.14     0  02:22        0.11
  4                    OUTFALL      0.00     0.00     7.00     0  00:00        0.00
  5                    OUTFALL      0.00     0.00     5.00     0  00:00        0.00
  JK-storage           STORAGE      4.04     4.85     5.65     0  03:15        4.85
  CC-storage           STORAGE      0.76     1.37     8.37     0  05:34        1.37
  XR-storage           STORAGE      7.17     7.72     5.72     0  03:09        7.72
  
  
  *******************
  Node Inflow Summary
  *******************
  
  -------------------------------------------------------------------------------------------------
                                  Maximum  Maximum                  Lateral       Total        Flow
                                  Lateral    Total  Time of Max      Inflow      Inflow     Balance
                                   Inflow   Inflow   Occurrence      Volume      Volume       Error
  Node                 Type           LPS      LPS  days hr:min    10^6 ltr    10^6 ltr     Percent
  -------------------------------------------------------------------------------------------------
  WS02001211           JUNCTION      7.35   294.55     0  07:23       0.207           7       0.482
  WS02001212           JUNCTION      0.00   293.20     0  03:00           0        6.97       0.240
  WS02001213           JUNCTION      0.00   293.48     0  02:59           0        6.95       0.285
  WS02003069           JUNCTION      0.32   646.63     0  02:44     0.00902        9.99       0.206
  WS02003072           JUNCTION      0.00   646.60     0  02:45           0        9.97       0.274
  WS02003073           JUNCTION      1.82   648.41     0  02:45      0.0514        9.99       0.297
  WS02003060           JUNCTION     16.53   646.30     0  02:43       0.466          10       0.193
  WS02003066           JUNCTION      0.00   339.76     0  02:42           0        2.64       0.077
  WS02003059           JUNCTION      0.00   294.29     0  04:04           0        6.94       0.508
  WS02003067           JUNCTION      0.00   339.75     0  02:42           0        2.65       0.196
  WS02004401           JUNCTION      0.00   344.42     0  02:35           0        2.77       0.434
  WS02004402           JUNCTION      0.00   343.88     0  02:36           0        2.76       0.437
  WS02004403           JUNCTION      0.00   343.44     0  02:37           0        2.75       0.419
  WS02004404           JUNCTION      0.16   343.40     0  02:37     0.00457        2.74       0.357
  WS02004406           JUNCTION      0.00   343.19     0  02:37           0        2.72       0.842
  WS02004409           JUNCTION      0.00   343.00     0  02:38           0        2.69       0.189
  WS02004410           JUNCTION      0.00   341.77     0  02:39           0        2.69       0.264
  WS02004411           JUNCTION      0.00   340.95     0  02:40           0        2.68       0.307
  WS02004412           JUNCTION      0.00   340.33     0  02:41           0        2.67       0.382
  WS02004413           JUNCTION      0.00   339.91     0  02:41           0        2.66       0.646
  WS02004405           JUNCTION      0.04   343.33     0  02:37     0.00107        2.73       0.506
  WS02006109           JUNCTION      1.23   346.76     0  02:30      0.0347        2.81       0.411
  WS02006110           JUNCTION      0.00   346.78     0  02:30           0         2.8       0.368
  WS02006111           JUNCTION      0.00   351.43     0  02:32           0        2.78       0.039
  WS02006112           JUNCTION      9.00   351.43     0  02:31       0.026        2.81       0.579
  WS02006113           JUNCTION      0.00   346.50     0  02:30           0        2.78       0.087
  WS02006115           JUNCTION      0.00   348.75     0  02:33           0        2.79       0.323
  WS02006116           JUNCTION      0.00   346.01     0  02:34           0        2.78       0.335
  WS02006230           JUNCTION     10.28   178.21     0  02:38        0.29        1.91       0.359
  WS02006231           JUNCTION      0.00   167.39     0  02:38           0        1.61      -0.195
  WS02006232           JUNCTION      0.00   167.01     0  02:37           0        1.61       0.287
  WS02006234           JUNCTION      0.00   166.70     0  02:37           0        1.61      -0.296
  WS02006235           JUNCTION      0.00   199.58     0  02:22           0         1.8       0.307
  WS02006238           JUNCTION      0.00   136.05     0  02:22           0       0.457      -0.093
  WS02006240           JUNCTION      0.00    57.38     0  02:23           0       0.289       0.525
  WS02006242           JUNCTION      0.00    39.77     0  02:22           0       0.211       0.514
  WS02006243           JUNCTION      0.00    39.80     0  02:22           0       0.158      -0.183
  WS02006245           JUNCTION      0.00    39.82     0  02:21           0       0.148       0.714
  WS02006247           JUNCTION      0.00    39.85     0  02:20           0       0.148       0.079
  WS02006248           JUNCTION      0.00    39.85     0  02:20           0       0.148       0.022
  WS02006249           JUNCTION      0.00    39.90     0  02:19           0       0.149       0.244
  WS02006239           JUNCTION      0.00    79.75     0  02:23           0       0.375      -0.121
  WS02006251           JUNCTION      0.08    39.97     0  02:18     0.00217       0.149       0.053
  WS02006252           JUNCTION      0.00     0.00     0  00:00           0           0       0.000 ltr
  WS02006253           JUNCTION      1.37    39.91     0  02:18     0.00336       0.147       0.100
  WS02006256           JUNCTION      0.00   300.00     0  02:22           0        3.11       0.318
  WS02004138           JUNCTION      0.00   285.00     0  02:06           0        6.82       0.047
  WS02004407           JUNCTION      0.00   343.06     0  02:38           0         2.7       0.086
  WS02006228           JUNCTION      0.00   345.39     0  02:30           0        2.78       0.256
  WS02006229           JUNCTION      0.00   345.54     0  02:30           0        2.79       0.369
  WS02006280           JUNCTION      0.00   205.19     0  02:19           0       0.897       0.008
  WS02006284           JUNCTION      0.10   205.18     0  02:19      0.0027       0.898       0.119
  WS02006287           JUNCTION      0.00   205.07     0  02:19           0       0.896       0.081
  WSF200               JUNCTION      0.00   339.75     0  02:42           0        2.64       0.059
  HS02004901           JUNCTION     11.14    11.14     0  02:11      0.0313      0.0314       5.927
  HS02004881           JUNCTION      4.51    38.86     0  02:18      0.0136       0.143       0.043
  HS02004876           JUNCTION      7.19    34.66     0  02:18      0.0261        0.13       0.407
  HS02004870           JUNCTION      7.96    27.60     0  02:18      0.0258       0.104       0.102
  HS02004862           JUNCTION      6.57    20.16     0  02:19      0.0314      0.0786       0.215
  HS02004856           JUNCTION      5.90    13.64     0  02:18      0.0194      0.0486       3.052
  HS02004852           JUNCTION      0.00     8.10     0  02:19           0      0.0292       0.174
  HS02004848           JUNCTION     13.12    13.12     0  02:22      0.0615      0.0615       0.071
  HS02004842           JUNCTION      0.00     5.46     0  02:32           0      0.0453      40.267
  HS02004837           JUNCTION     19.11    23.75     0  02:17       0.224       0.256       0.308
  HS02004830           JUNCTION      0.15    23.88     0  02:18     0.00423       0.247       0.502
  HS02004824           JUNCTION     14.79    38.49     0  02:22      0.0805       0.326       0.166
  HS02004817           JUNCTION      0.60    39.08     0  02:22      0.0169       0.342       5.117
  HS02004807           JUNCTION     14.97    52.72     0  02:20      0.0475       0.373       1.145
  HS02004802           JUNCTION      0.00    53.01     0  02:22           0       0.369       1.114
  HS02004799           JUNCTION     11.53   129.88     0  02:16      0.0384       0.465       0.490
  HS02004792           JUNCTION     51.47   118.58     0  02:16       0.168       0.427       0.096
  HS02004788           JUNCTION     17.31    69.08     0  02:17         0.1       0.261       0.148
  HS02004785           JUNCTION      0.15    52.12     0  02:16     0.00423       0.162       0.298
  HS02004777           JUNCTION      0.03    52.40     0  02:15    0.000846       0.162       3.291
  HS02004770           JUNCTION     43.62    53.57     0  02:13       0.134       0.163       1.934
  HS02004480           JUNCTION      0.00   153.15     0  02:17           0       0.543       0.134
  HS02004479           JUNCTION      0.00    23.75     0  02:19           0      0.0899       0.818
  HS02004478           JUNCTION      0.00   205.06     0  02:18           0       0.897       0.070
  YS02001745           JUNCTION     76.22   121.52     0  03:40       0.821       0.826       1.383
  YS02001748           JUNCTION      0.04   252.25     0  03:39     0.00127       0.845       2.897
  YS02001751           JUNCTION      0.01   271.15     0  03:40     0.00031       0.816       2.947
  YS02001754           JUNCTION      0.26   134.49     0  03:18     0.00733       0.772       3.213
  YS02001762           JUNCTION      0.00   121.32     0  02:43           0       0.884       2.490
  YS02001765           JUNCTION      0.00   122.40     0  02:57           0       0.887       2.835
  YS02001767           JUNCTION      0.54   138.82     0  02:55      0.0151       0.907       4.009
  YS02001770           JUNCTION     97.68   145.03     0  02:55        0.96       0.987       3.397
  YS02001774           JUNCTION      0.00    51.10     0  02:55           0      0.0926      38.128
  YS02001779           JUNCTION      0.01    56.28     0  02:54    0.000141      0.0405      59.829
  YS02001882           JUNCTION      0.00     3.95     0  02:10           0     0.00526      46.756
  YS02001884           JUNCTION      0.00    11.34     0  02:07           0      0.0211      30.060
  YS02001759           JUNCTION     95.32   213.67     0  02:52       0.896        1.75       1.336
  YS02001887           JUNCTION    125.09   125.09     0  02:45        1.07        1.08       0.667
  YS02001890           JUNCTION      0.00   124.43     0  02:54           0        1.06       0.748
  YS02001898           JUNCTION      0.00   124.86     0  02:53           0        1.04       0.210
  YS02001901           JUNCTION      0.00   124.98     0  02:53           0        1.04       0.531
  YS02001904           JUNCTION      0.00   124.87     0  02:53           0        1.04       0.494
  YS02001907           JUNCTION      0.00   226.15     0  02:55           0        2.23       0.997
  YS02001910           JUNCTION      0.00   103.16     0  03:00           0         1.2       0.852
  YS02001915           JUNCTION     68.22   102.76     0  03:01       0.702        1.21       0.379
  YS02001918           JUNCTION      0.00    34.80     0  03:02           0       0.504       0.224
  YS02001619           JUNCTION     66.37    89.70     0  03:52       0.693       0.695       1.823
  YS02001629           JUNCTION      0.00   168.34     0  03:49           0       0.628       4.964
  YS02001641           JUNCTION      0.00   150.37     0  02:55           0        1.32       1.669
  YS02001644           JUNCTION     72.40   277.44     0  05:40       0.788        2.74       0.982
  YS02001652           JUNCTION      0.00   119.61     0  03:38           0       0.713       3.317
  YS02001655           JUNCTION      0.15   257.04     0  03:38     0.00434       0.756       3.332
  YS02001920           JUNCTION      2.87    34.82     0  03:02      0.0809       0.506       0.406
  YS02001923           JUNCTION      0.04    31.96     0  03:02     0.00106       0.425       0.071
  YS02001926           JUNCTION      0.05    31.99     0  03:01     0.00147       0.426       0.507
  YS02001929           JUNCTION     31.96    31.96     0  03:01       0.425       0.425       0.069
  YS02001658           JUNCTION      0.00   217.85     0  03:42           0       0.794       3.066
  YS02001661           JUNCTION      0.00   164.32     0  03:45           0       0.804       2.783
  YS02001664           JUNCTION     88.77    88.77     0  02:48       0.783       0.791       0.664
  YS02001622           JUNCTION      0.00   128.37     0  03:52           0       0.697       4.805
  YS02001633           JUNCTION     73.59   161.32     0  03:03       0.811        1.38       2.374
  YS02001649           JUNCTION      0.00   333.80     0  03:05           0        2.73       1.384
  YS02001757           JUNCTION      0.00   546.21     0  02:59           0        4.56       2.077
  YS02001895           JUNCTION      0.00   124.47     0  02:53           0        1.05       0.357
  YS02001625           JUNCTION      0.00   169.30     0  03:50           0       0.677       5.958
  YS02163301           JUNCTION      0.00    98.78     0  03:03           0       0.593       4.244
  YS02163601           JUNCTION      0.11   151.50     0  03:02      0.0031        1.34       2.326
  YS02164001           JUNCTION      0.00   151.00     0  03:04           0        1.32       1.587
  YS02001647           JUNCTION      0.00   223.68     0  02:55           0        2.19       1.292
  YSB1154              JUNCTION     12.79    12.79     0  02:16      0.0465      0.0479       3.107
  YSB6556              JUNCTION      0.00    12.78     0  02:18           0      0.0489       2.612
  YSB1174              JUNCTION     12.68    12.68     0  02:10      0.0339       0.035       3.811
  YSB1171              JUNCTION      0.00    23.68     0  02:16           0      0.0895       7.604
  YS02006553           JUNCTION      0.00   225.95     0  02:55           0        2.22       0.647
  YS02006561           JUNCTION      0.00   335.50     0  02:55           0        3.15       0.024
  YS02006556           JUNCTION      0.00   226.08     0  02:54           0        2.23       0.467
  YS02006558           JUNCTION    106.10   331.70     0  02:54       0.975        3.17       0.140
  YS02001783           JUNCTION      0.00   331.60     0  02:55           0        3.15       0.049
  YS02001784           JUNCTION      1.06   332.64     0  02:55      0.0299        3.17       0.080
  YS02001786           JUNCTION      0.06   332.64     0  02:55     0.00159        3.17       0.078
  YS02001788           JUNCTION      0.07   332.69     0  02:56       0.002        3.17       0.046
  YS02001790           JUNCTION      0.15   332.84     0  02:56     0.00437        3.18       0.056
  YS02001791           JUNCTION      0.00   332.82     0  02:56           0        3.17       0.023
  YS02001793           JUNCTION      0.00  1002.70     0  03:01           0        3.28       0.174
  WS02004139           JUNCTION      0.32   286.29     0  07:22     0.00905        6.83       0.461
  WSC                  OUTFALL       0.00   648.39     0  02:46           0        9.97       0.000
  3                    OUTFALL       0.00   261.69     0  02:22           0        1.62       0.000
  4                    OUTFALL       0.00     0.00     0  00:00           0           0       0.000 ltr
  5                    OUTFALL       0.00     0.00     0  00:00           0           0       0.000 ltr
  JK-storage           STORAGE       0.00  1206.18     0  03:00           0        3.43       0.256
  CC-storage           STORAGE       0.00   546.61     0  03:00           0        3.92       1.684
  XR-storage           STORAGE     323.40   323.40     0  02:59        7.02        7.62       0.000
  
  
  **********************
  Node Surcharge Summary
  **********************
  
  Surcharging occurs when water rises above the top of the highest conduit.
  ---------------------------------------------------------------------
                                               Max. Height   Min. Depth
                                   Hours       Above Crown    Below Rim
  Node                 Type      Surcharged         Meters       Meters
  ---------------------------------------------------------------------
  YS02001748           JUNCTION        3.11          0.205        0.985
  YS02001751           JUNCTION        3.90          0.483        0.717
  YS02001754           JUNCTION        4.36          0.704        0.446
  YS02001762           JUNCTION        5.10          0.970        0.180
  YS02001765           JUNCTION        4.99          0.925        0.175
  YS02001767           JUNCTION        4.87          0.890        0.140
  YS02001770           JUNCTION        4.76          0.855        0.065
  YS02001774           JUNCTION        5.06          0.955        0.095
  YS02001779           JUNCTION        4.29          0.680        0.000
  YS02001759           JUNCTION        5.16          0.999        0.211
  YS02001619           JUNCTION        3.77          0.440        0.170
  YS02001629           JUNCTION        3.78          0.433        0.037
  YS02001641           JUNCTION        5.04          0.917        0.183
  YS02001644           JUNCTION        5.05          0.920        0.000
  YS02001652           JUNCTION        4.45          0.734        0.396
  YS02001655           JUNCTION        3.97          0.609        0.591
  YS02001658           JUNCTION        3.16          0.220        1.080
  YS02001622           JUNCTION        3.84          0.463        0.157
  YS02001633           JUNCTION        4.95          0.885        0.175
  YS02001649           JUNCTION        5.12          0.969        0.081
  YS02001757           JUNCTION        5.32          1.101        0.109
  YS02001625           JUNCTION        4.53          0.760        0.020
  YS02163301           JUNCTION        4.82          0.844        0.186
  YS02163601           JUNCTION        5.12          0.966        0.114
  YS02164001           JUNCTION        4.99          0.900        0.200
  YS02001647           JUNCTION        4.51          0.746        0.154
  YS02001793           JUNCTION        0.01          1.071        1.529
  
  
  *********************
  Node Flooding Summary
  *********************
  
  Flooding refers to all water that overflows a node, whether it ponds or not.
  --------------------------------------------------------------------------
                                                             Total   Maximum
                                 Maximum   Time of Max       Flood    Ponded
                        Hours       Rate    Occurrence      Volume     Depth
  Node                 Flooded       LPS   days hr:min    10^6 ltr    Meters
  --------------------------------------------------------------------------
  YS02001779              0.01      4.83      0  05:21       0.000     0.000
  YS02001644              2.41    277.43      0  05:40       1.167     0.000
  XR-storage              0.69     29.25      0  03:09       0.032     0.000
  
  
  **********************
  Storage Volume Summary
  **********************
  
  --------------------------------------------------------------------------------------------------
                         Average     Avg  Evap Exfil       Maximum     Max    Time of Max    Maximum
                          Volume    Pcnt  Pcnt  Pcnt        Volume    Pcnt     Occurrence    Outflow
  Storage Unit           1000 m3    Full  Loss  Loss       1000 m3    Full    days hr:min        LPS
  --------------------------------------------------------------------------------------------------
  JK-storage               0.203      70     0     0         0.244      84       0  03:15     961.93
  CC-storage               2.115      13     0     0         3.812      24       0  05:34      93.72
  XR-storage               0.861      93     0     0         0.926     100       0  03:09     285.00
  
  
  ***********************
  Outfall Loading Summary
  ***********************
  
  -----------------------------------------------------------
                         Flow       Avg       Max       Total
                         Freq      Flow      Flow      Volume
  Outfall Node           Pcnt       LPS       LPS    10^6 ltr
  -----------------------------------------------------------
  WSC                   99.99    437.74    648.39       9.965
  3                     76.14    157.89    261.69       1.615
  4                      0.00      0.00      0.00       0.000
  5                      0.00      0.00      0.00       0.000
  -----------------------------------------------------------
  System                44.03    595.64    814.32      11.580
  
  
  ********************
  Link Flow Summary
  ********************
  
  -----------------------------------------------------------------------------
                                 Maximum  Time of Max   Maximum    Max/    Max/
                                  |Flow|   Occurrence   |Veloc|    Full    Full
  Link                 Type          LPS  days hr:min     m/sec    Flow   Depth
  -----------------------------------------------------------------------------
  WS02003066WSF200     CONDUIT    339.75     0  02:42      2.54    0.06    0.18
  WS02006287WS02006284 CONDUIT    205.09     0  02:19      1.62    0.10    0.22
  WS02006284WS02006280 CONDUIT    205.19     0  02:19      1.86    0.09    0.20
  WS02006280WS02006229 CONDUIT    205.19     0  02:19      2.99    0.04    0.14
  WS02006229WS02006228 CONDUIT    345.39     0  02:30      0.71    1.14    0.92
  WS02006256WS02006235 CONDUIT    166.34     0  05:43      2.55    1.76    1.00
  WS02006253WS02006251 CONDUIT     39.89     0  02:18      0.49    0.12    0.27
  WS02006252WS02006251 CONDUIT      0.00     0  00:00      0.00    0.00    0.00
  WS02006251WS02006249 CONDUIT     39.90     0  02:19      0.54    0.12    0.25
  WS02006249WS02006248 CONDUIT     39.85     0  02:20      0.64    0.22    0.22
  WS02006248WS02006247 CONDUIT     39.85     0  02:20      0.62    0.09    0.22
  WS02006247WS02006245 CONDUIT     39.82     0  02:21      0.56    0.32    0.24
  WS02006245WS02006243 CONDUIT     39.80     0  02:22      0.70    0.12    0.23
  WS02006243WS02006242 CONDUIT     39.77     0  02:22      0.56    0.08    0.34
  WS02006242WS02006240 CONDUIT     44.51     0  02:25      0.50    0.18    0.44
  WS02006240WS02006239 CONDUIT     51.20     0  03:55      0.67    0.16    0.46
  WS02006239WS02006238 CONDUIT     80.15     0  03:54      0.66    0.26    0.58
  WS02006238WS02006235 CONDUIT    118.85     0  04:21      1.03    0.27    0.62
  WS02006235WS02006234 CONDUIT    166.70     0  02:37      0.95    1.76    0.57
  WS02006234WS02006232 CONDUIT    167.01     0  02:37      0.79    0.34    0.65
  WS02006232WS02006231 CONDUIT    167.39     0  02:38      0.67    0.35    0.63
  WS02006231WS02006230 CONDUIT    167.93     0  02:38      1.01    2.55    0.51
  WS02006230WS02006229 CONDUIT    179.33     0  02:39      0.52    3.99    0.99
  WS02006228WS02006109 CONDUIT    345.53     0  02:30      0.70    1.51    0.95
  WS02006116WS02004401 CONDUIT    344.42     0  02:35      0.61    0.47    0.68
  WS02006115WS02006116 CONDUIT    346.01     0  02:34      0.74    0.44    0.60
  WS02006113WS02006111 CONDUIT    351.43     0  02:32      2.11    0.42    0.37
  WS02006112WS02006115 CONDUIT    348.75     0  02:33      0.59    0.21    0.72
  WS02006111WS02006112 CONDUIT    345.98     0  02:32      1.02    0.16    0.64
  WS02006110WS02006113 CONDUIT    346.50     0  02:30      0.92    0.32    0.70
  WS02006109WS02006110 CONDUIT    346.78     0  02:30      0.73    0.67    0.90
  WS02004411WS02004412 CONDUIT    340.33     0  02:41      0.89    0.48    0.56
  WS02004401WS02004402 CONDUIT    343.88     0  02:36      0.57    0.41    0.72
  WS02004413WS02003067 CONDUIT    339.75     0  02:42      0.87    0.15    0.50
  WS02004412WS02004413 CONDUIT    339.91     0  02:41      0.81    0.23    0.66
  WS02004410WS02004411 CONDUIT    340.95     0  02:40      0.78    0.47    0.55
  WS02004409WS02004410 CONDUIT    341.77     0  02:39      0.83    0.44    0.53
  WS02004407WS02004409 CONDUIT    343.00     0  02:38      1.30    0.12    0.38
  WS02004406WS02004407 CONDUIT    343.06     0  02:38      0.80    0.15    0.54
  WS02004405WS02004406 CONDUIT    343.19     0  02:37      0.49    0.68    0.83
  WS02004404WS02004405 CONDUIT    343.29     0  02:37      0.49    3.36    0.83
  WS02004403WS02004404 CONDUIT    343.24     0  02:37      0.51    0.25    0.79
  WS02004402WS02004403 CONDUIT    343.44     0  02:37      0.55    0.49    0.74
  WS02004139WS02001211 CONDUIT    287.21     0  07:23      0.54    0.36    0.52
  WS02004138WS02004139 CONDUIT    285.97     0  07:22      2.39    0.06    0.38
  WS02003067WS02003066 CONDUIT    339.76     0  02:42      0.93    0.11    0.36
  WS02001213WS02003059 CONDUIT    294.29     0  04:04      0.59    0.49    0.67
  WS02001212WS02001213 CONDUIT    293.48     0  02:59      1.19    0.45    0.38
  WS02001211WS02001212 CONDUIT    293.20     0  03:00      0.67    0.22    0.56
  WS02003072WS02003073 CONDUIT    646.58     0  02:45      1.51    1.40    0.40
  WS02003069WS02003072 CONDUIT    646.60     0  02:45      1.44    0.31    0.42
  WS02003060WS02003069 CONDUIT    646.31     0  02:44      1.70    0.25    0.37
  WS02003059WS02003060 CONDUIT    295.72     0  04:05      0.82    0.19    0.56
  HS02004901HS02004770 CONDUIT     10.28     0  02:16      0.05    0.04    0.32
  HS02004876HS02004881 CONDUIT     34.73     0  02:19      0.56    0.37    0.09
  HS02004870HS02004876 CONDUIT     27.59     0  02:19      0.39    0.02    0.10
  HS02004842HS02004848 CONDUIT      5.46     0  02:32      0.03    0.00    0.27
  HS02004837HS02004842 CONDUIT      5.63     0  02:32      0.42    0.00    0.29
  HS02004830HS02004837 CONDUIT     23.73     0  02:18      0.44    0.02    0.08
  HS02004824HS02004830 CONDUIT     23.88     0  02:19      0.48    0.03    0.07
  HS02004817HS02004824 CONDUIT     38.48     0  02:22      0.17    0.02    0.40
  HS02004770HS02004777 CONDUIT     52.37     0  02:15      0.23    0.10    0.33
  HS02004799HS02004480 CONDUIT    129.69     0  02:17      0.59    0.16    0.31
  HS02004792HS02004799 CONDUIT    118.52     0  02:16      0.68    0.07    0.25
  HS02004788HS02004792 CONDUIT     69.02     0  02:17      0.83    0.05    0.12
  HS02004785HS02004788 CONDUIT     52.02     0  02:17      0.51    0.39    0.14
  HS02004777HS02004785 CONDUIT     51.97     0  02:16      0.27    0.06    0.27
  HS02004480HS02004478 CONDUIT    153.12     0  02:17      0.96    0.64    0.23
  HS02004479HS02004480 CONDUIT     23.95     0  02:19      0.15    0.02    0.31
  HS02004862HS02004870 CONDUIT     20.13     0  02:20      0.47    0.02    0.06
  HS02004848HS02004852 CONDUIT      8.10     0  02:19      0.31    0.01    0.04
  HS02004856HS02004862 CONDUIT     13.62     0  02:19      0.34    0.01    0.06
  HS02004852HS02004856 CONDUIT      8.07     0  02:20      0.12    0.01    0.09
  HS02004802HS02004478 CONDUIT     53.38     0  02:22      0.30    0.05    0.26
  HS02004478WS02006287 CONDUIT    205.07     0  02:19      1.32    0.06    0.17
  HS02004817HS02004807 CONDUIT     39.63     0  02:24      0.11    0.02    0.51
  HS02004807HS02004802 CONDUIT     53.01     0  02:22      0.25    0.10    0.30
  YS02001759YS02001757 CONDUIT    215.36     0  02:52      0.27    0.15    1.00
  YS02001762YS02001759 CONDUIT    118.54     0  02:57      0.17    0.14    1.00
  YS02001765YS02001762 CONDUIT    121.32     0  02:43      0.23    0.11    1.00
  YS02001770YS02001767 CONDUIT    138.28     0  02:55      0.32    0.55    1.00
  YS02001774YS02001770 CONDUIT     50.85     0  02:54      0.15    0.03    1.00
  YS02001779YS02001774 CONDUIT     56.27     0  02:54      0.08    0.03    1.00
  YS02001649YS02001757 CONDUIT    332.69     0  03:05      0.42    0.20    1.00
  YS02001767YS02001765 CONDUIT    122.40     0  02:57      0.26    0.15    1.00
  YS02006561YS02001783 CONDUIT    331.60     0  02:55      1.81    0.17    0.39
  YS02001783YS02001784 CONDUIT    331.58     0  02:55      1.26    0.46    0.52
  YS02001784YS02001785 CONDUIT    332.58     0  02:55      1.34    0.77    0.50
  YS02001788YS02001790 CONDUIT    332.68     0  02:56      1.90    0.25    0.38
  YS02001790YS02001791 CONDUIT    332.82     0  02:56      2.25    0.36    0.38
  YS02001791YS02001793 CONDUIT    477.39     0  03:02      4.42    0.20    0.66
  YS02001910YS02001907 CONDUIT    103.25     0  03:00      0.49    0.06    0.75
  YS02001786YS02001788 CONDUIT    332.61     0  02:56      1.78    0.64    0.40
  YS02001915YS02001910 CONDUIT    103.16     0  03:00      0.44    0.05    0.54
  YS02001918YS02001915 CONDUIT     34.78     0  03:03      0.44    0.02    0.26
  YS02001923YS02001920 CONDUIT     31.95     0  03:02      0.46    0.01    0.14
  YS02001926YS02001923 CONDUIT     31.92     0  03:02      0.50    0.05    0.14
  YS02001929YS02001926 CONDUIT     31.94     0  03:01      0.53    0.02    0.13
  YS02001920YS02001918 CONDUIT     34.80     0  03:02      0.47    0.03    0.15
  YS02001629YS02163301 CONDUIT     98.78     0  03:03      0.13    0.12    1.00
  YS02001619YS02001622 CONDUIT    128.37     0  03:52      0.65    0.19    1.00
  YS02001622YS02001625 CONDUIT    169.30     0  03:50      0.25    0.09    1.00
  YS02001625YS02001629 CONDUIT    168.34     0  03:49      0.25    0.08    1.00
  YS02163301YS02001633 CONDUIT     89.14     0  03:03      0.11    0.08    1.00
  YS02163601YS02164001 CONDUIT    151.00     0  03:04      0.19    0.13    1.00
  YS02164001YS02001641 CONDUIT    150.37     0  02:55      0.19    0.21    1.00
  YS02001641YS02001644 CONDUIT    151.88     0  02:55      0.19    0.49    1.00
  YS02001647YS02001649 CONDUIT    264.42     0  03:05      0.34    0.14    1.00
  YS02006553YS02006556 CONDUIT    226.08     0  02:54      0.32    0.19    0.83
  YS02006556YS02006558 CONDUIT    225.98     0  02:55      0.32    0.18    0.86
  YSB6556YSB1171       CONDUIT     12.95     0  02:21      0.06    0.01    0.57
  YS02001907YS02006553 CONDUIT    225.95     0  02:55      0.27    0.27    0.94
  YS02006558YS02006561 CONDUIT    335.50     0  02:55      2.36    0.74    0.50
  YS02001633YS02163601 CONDUIT    151.39     0  03:02      0.19    0.16    1.00
  YS02001644YS02001647 CONDUIT    223.68     0  02:55      0.29    0.13    1.00
  YS02001745YS02001748 CONDUIT    179.37     0  03:32      1.41    0.07    0.92
  YS02001748YS02001751 CONDUIT    271.14     0  03:40      1.09    0.14    1.00
  YS02001751YS02001754 CONDUIT    134.23     0  03:18      0.96    0.06    1.00
  YS02001754YS02001757 CONDUIT    128.01     0  03:17      0.33    0.05    1.00
  YS02001882YS02001884 CONDUIT      3.95     0  02:10      0.06    0.00    0.47
  YS02001884YS02001887 CONDUIT     11.34     0  02:07      0.06    0.02    0.57
  YS02001890YS02001895 CONDUIT    124.47     0  02:53      0.29    0.06    0.54
  YS02001895YS02001898 CONDUIT    124.86     0  02:53      0.48    0.22    0.40
  YS02001898YS02001901 CONDUIT    124.98     0  02:53      0.33    0.08    0.48
  YS02001901YS02001904 CONDUIT    124.87     0  02:53      0.29    0.19    0.53
  YS02001904YS02001907 CONDUIT    124.73     0  02:53      0.22    0.04    0.69
  YS02001887YS02001890 CONDUIT    124.43     0  02:54      0.24    0.21    0.62
  YS02001652YS02001649 CONDUIT    143.11     0  03:00      0.32    0.07    1.00
  YS02001655YS02001652 CONDUIT    119.61     0  03:38      1.04    0.06    1.00
  YS02001658YS02001655 CONDUIT    242.99     0  03:39      1.26    0.10    1.00
  YS02001661YS02001658 CONDUIT    214.60     0  03:44      1.46    0.08    0.94
  YS02001664YS02001661 CONDUIT     98.96     0  04:49      1.13    0.03    0.70
  YSB1154YSB6556       CONDUIT     12.78     0  02:18      0.19    0.02    0.46
  YSB1174YSB1171       CONDUIT     11.78     0  02:11      0.05    0.02    0.58
  YSB1171HS02004479    CONDUIT     23.75     0  02:19      0.54    0.02    0.45
  HS02004881HS02006253 CONDUIT     38.86     0  02:18      1.66    0.01    0.03
  YS02001793JiankangQianchi CONDUIT   1206.18     0  03:00      1.94    0.10    1.00
  YS02001757CaochengTiaoxuchi CONDUIT    546.61     0  03:00      1.02    0.24    1.00
  WSF200WS02003060     CONDUIT    339.85     0  02:42      1.39    0.08    0.27
  1                    CONDUIT    648.39     0  02:46      2.95    0.23    0.32
  2                    CONDUIT      0.00     0  00:00      0.00    0.00    0.00
  3                    CONDUIT    261.69     0  02:22      8.29    0.42    0.48
  4                    CONDUIT      0.00     0  00:00      0.00    0.00    0.00
  CC-Pump-1            PUMP         0.00     0  00:00              0.00
  CC-Pump-2            PUMP         0.00     0  00:00              0.00
  JK-Pump-1            PUMP       300.00     0  02:22              1.00
  JK-Pump-2            PUMP         0.00     0  00:00              0.00
  XR-Pump-1            PUMP        95.00     0  00:00              1.00
  XR-Pump-2            PUMP        95.00     0  00:25              1.00
  XR-Pump-3            PUMP        95.00     0  02:06              1.00
  XR-Pump-4            PUMP         0.00     0  00:00              0.00
  
  
  ***************************
  Flow Classification Summary
  ***************************
  
  -------------------------------------------------------------------------------------
                      Adjusted    ---------- Fraction of Time in Flow Class ---------- 
                       /Actual         Up    Down  Sub   Sup   Up    Down  Norm  Inlet 
  Conduit               Length    Dry  Dry   Dry   Crit  Crit  Crit  Crit  Ltd   Ctrl  
  -------------------------------------------------------------------------------------
  WS02003066WSF200        1.00   0.11  0.00  0.00  0.00  0.89  0.00  0.00  0.69  0.00
  WS02006287WS02006284    1.00   0.03  0.03  0.00  0.56  0.38  0.00  0.00  0.77  0.00
  WS02006284WS02006280    1.00   0.04  0.00  0.00  0.00  0.00  0.00  0.96  0.00  0.00
  WS02006280WS02006229    1.00   0.04  0.00  0.00  0.00  0.00  0.00  0.96  0.00  0.00
  WS02006229WS02006228    1.00   0.00  0.00  0.00  1.00  0.00  0.00  0.00  0.00  0.00
  WS02006256WS02006235    1.00   0.07  0.00  0.00  0.89  0.04  0.00  0.00  0.04  0.00
  WS02006253WS02006251    1.00   0.02  0.02  0.00  0.96  0.00  0.00  0.00  0.00  0.00
  WS02006252WS02006251    1.00   1.00  0.00  0.00  0.00  0.00  0.00  0.00  0.00  0.00
  WS02006251WS02006249    1.00   0.00  0.00  0.00  1.00  0.00  0.00  0.00  0.95  0.00
  WS02006249WS02006248    1.00   0.00  0.01  0.00  0.00  0.00  0.99  0.00  0.00  0.00
  WS02006248WS02006247    1.00   0.01  0.00  0.00  0.98  0.00  0.00  0.02  0.87  0.00
  WS02006247WS02006245    1.00   0.01  0.00  0.00  0.96  0.00  0.00  0.03  0.00  0.00
  WS02006245WS02006243    1.00   0.01  0.00  0.00  0.90  0.00  0.00  0.09  0.08  0.00
  WS02006243WS02006242    1.00   0.01  0.00  0.00  0.95  0.00  0.00  0.04  0.45  0.00
  WS02006242WS02006240    1.00   0.02  0.04  0.00  0.94  0.00  0.01  0.00  0.01  0.00
  WS02006240WS02006239    1.00   0.06  0.00  0.00  0.87  0.00  0.00  0.07  0.08  0.00
  WS02006239WS02006238    1.00   0.06  0.00  0.00  0.93  0.00  0.00  0.01  0.00  0.00
  WS02006238WS02006235    1.00   0.06  0.01  0.00  0.93  0.00  0.00  0.00  0.00  0.00
  WS02006235WS02006234    1.00   0.08  0.00  0.00  0.87  0.00  0.05  0.00  0.00  0.00
  WS02006234WS02006232    1.00   0.08  0.00  0.00  0.92  0.00  0.00  0.00  0.01  0.00
  WS02006232WS02006231    1.00   0.08  0.01  0.00  0.90  0.00  0.01  0.00  0.01  0.00
  WS02006231WS02006230    1.00   0.09  0.00  0.00  0.18  0.00  0.73  0.00  0.00  0.00
  WS02006230WS02006229    1.00   0.00  0.00  0.00  0.99  0.00  0.00  0.01  0.02  0.00
  WS02006228WS02006109    1.00   0.00  0.00  0.00  1.00  0.00  0.00  0.00  0.00  0.00
  WS02006116WS02004401    1.00   0.03  0.00  0.00  0.97  0.00  0.00  0.00  0.01  0.00
  WS02006115WS02006116    1.00   0.03  0.00  0.00  0.93  0.00  0.00  0.03  0.00  0.00
  WS02006113WS02006111    1.00   0.02  0.00  0.00  0.01  0.97  0.00  0.00  0.12  0.00
  WS02006112WS02006115    1.00   0.02  0.01  0.00  0.96  0.00  0.00  0.00  0.00  0.00
  WS02006111WS02006112    1.00   0.02  0.00  0.00  0.97  0.00  0.00  0.00  0.92  0.00
  WS02006110WS02006113    1.00   0.00  0.02  0.00  0.98  0.00  0.00  0.00  0.00  0.00
  WS02006109WS02006110    1.00   0.00  0.00  0.00  0.99  0.00  0.00  0.00  0.00  0.00
  WS02004411WS02004412    1.00   0.09  0.00  0.00  0.91  0.00  0.00  0.00  0.00  0.00
  WS02004401WS02004402    1.00   0.03  0.00  0.00  0.97  0.00  0.00  0.00  0.04  0.00
  WS02004413WS02003067    1.00   0.10  0.01  0.00  0.00  0.00  0.89  0.00  0.00  0.00
  WS02004412WS02004413    1.00   0.09  0.00  0.00  0.90  0.00  0.00  0.00  0.00  0.00
  WS02004410WS02004411    1.00   0.09  0.00  0.00  0.91  0.00  0.00  0.00  0.00  0.00
  WS02004409WS02004410    1.00   0.09  0.00  0.00  0.91  0.00  0.00  0.00  0.00  0.00
  WS02004407WS02004409    1.00   0.09  0.00  0.00  0.90  0.01  0.00  0.00  0.72  0.00
  WS02004406WS02004407    1.00   0.00  0.09  0.00  0.91  0.00  0.00  0.00  0.00  0.00
  WS02004405WS02004406    1.00   0.00  0.00  0.00  1.00  0.00  0.00  0.00  0.04  0.00
  WS02004404WS02004405    1.00   0.00  0.00  0.00  1.00  0.00  0.00  0.00  0.01  0.00
  WS02004403WS02004404    1.00   0.00  0.04  0.00  0.96  0.00  0.00  0.00  0.04  0.00
  WS02004402WS02004403    1.00   0.04  0.00  0.00  0.96  0.00  0.00  0.00  0.00  0.00
  WS02004139WS02001211    1.00   0.00  0.00  0.00  1.00  0.00  0.00  0.00  0.00  0.00
  WS02004138WS02004139    1.00   0.00  0.00  0.00  1.00  0.00  0.00  0.00  1.00  0.00
  WS02003067WS02003066    1.00   0.11  0.00  0.00  0.89  0.00  0.00  0.00  0.00  0.00
  WS02001213WS02003059    1.00   0.00  0.00  0.00  1.00  0.00  0.00  0.00  0.00  0.00
  WS02001212WS02001213    1.00   0.00  0.00  0.00  0.40  0.00  0.60  0.00  0.00  0.00
  WS02001211WS02001212    1.00   0.00  0.00  0.00  1.00  0.00  0.00  0.00  0.00  0.00
  WS02003072WS02003073    1.00   0.00  0.00  0.00  0.00  0.00  0.00  1.00  0.00  0.00
  WS02003069WS02003072    1.00   0.00  0.00  0.00  1.00  0.00  0.00  0.00  0.52  0.00
  WS02003060WS02003069    1.00   0.00  0.00  0.00  0.99  0.01  0.00  0.00  0.29  0.00
  WS02003059WS02003060    1.00   0.00  0.00  0.00  1.00  0.00  0.00  0.00  0.02  0.00
  HS02004901HS02004770    1.00   0.04  0.00  0.00  0.96  0.00  0.00  0.00  0.02  0.00
  HS02004876HS02004881    1.00   0.01  0.00  0.00  0.99  0.00  0.00  0.00  0.00  0.00
  HS02004870HS02004876    1.00   0.00  0.00  0.00  1.00  0.00  0.00  0.00  0.95  0.00
  HS02004842HS02004848    1.00   0.00  0.04  0.00  0.96  0.00  0.00  0.00  0.68  0.00
  HS02004837HS02004842    1.00   0.00  0.00  0.00  1.00  0.00  0.00  0.00  0.11  0.00
  HS02004830HS02004837    1.00   0.00  0.00  0.00  1.00  0.00  0.00  0.00  0.99  0.00
  HS02004824HS02004830    1.00   0.00  0.00  0.00  1.00  0.00  0.00  0.00  0.00  0.00
  HS02004817HS02004824    1.00   0.00  0.00  0.00  1.00  0.00  0.00  0.00  1.00  0.00
  HS02004770HS02004777    1.00   0.00  0.04  0.00  0.96  0.00  0.00  0.00  0.07  0.00
  HS02004799HS02004480    1.00   0.00  0.01  0.00  0.94  0.00  0.05  0.00  0.00  0.00
  HS02004792HS02004799    1.00   0.00  0.00  0.00  1.00  0.00  0.00  0.00  0.98  0.00
  HS02004788HS02004792    1.00   0.00  0.00  0.00  1.00  0.00  0.00  0.00  0.98  0.00
  HS02004785HS02004788    1.00   0.00  0.00  0.00  1.00  0.00  0.00  0.00  0.00  0.00
  HS02004777HS02004785    1.00   0.00  0.00  0.00  1.00  0.00  0.00  0.00  0.21  0.00
  HS02004480HS02004478    1.00   0.05  0.00  0.00  0.62  0.00  0.00  0.33  0.00  0.00
  HS02004479HS02004480    1.00   0.01  0.00  0.00  0.99  0.00  0.00  0.00  0.16  0.00
  HS02004862HS02004870    1.00   0.00  0.00  0.00  1.00  0.00  0.00  0.00  0.06  0.00
  HS02004848HS02004852    1.00   0.04  0.00  0.00  0.96  0.00  0.00  0.00  0.71  0.00
  HS02004856HS02004862    1.00   0.00  0.08  0.00  0.92  0.00  0.00  0.00  0.74  0.00
  HS02004852HS02004856    1.00   0.04  0.01  0.00  0.95  0.00  0.00  0.00  0.83  0.00
  HS02004802HS02004478    1.00   0.04  0.01  0.00  0.95  0.00  0.00  0.00  0.01  0.00
  HS02004478WS02006287    1.00   0.06  0.00  0.00  0.84  0.10  0.00  0.00  0.77  0.00
  HS02004817HS02004807    1.00   0.00  0.04  0.00  0.96  0.00  0.00  0.00  0.00  0.00
  HS02004807HS02004802    1.00   0.04  0.00  0.00  0.95  0.00  0.00  0.00  0.01  0.00
  YS02001759YS02001757    1.00   0.00  0.00  0.00  1.00  0.00  0.00  0.00  0.17  0.00
  YS02001762YS02001759    1.00   0.00  0.00  0.00  1.00  0.00  0.00  0.00  0.04  0.00
  YS02001765YS02001762    1.00   0.00  0.00  0.00  1.00  0.00  0.00  0.00  0.22  0.00
  YS02001770YS02001767    1.00   0.00  0.00  0.00  1.00  0.00  0.00  0.00  0.00  0.00
  YS02001774YS02001770    1.00   0.00  0.06  0.00  0.94  0.00  0.00  0.00  0.07  0.00
  YS02001779YS02001774    1.00   0.00  0.00  0.00  1.00  0.00  0.00  0.00  0.26  0.00
  YS02001649YS02001757    1.00   0.00  0.00  0.00  1.00  0.00  0.00  0.00  0.19  0.00
  YS02001767YS02001765    1.00   0.00  0.00  0.00  1.00  0.00  0.00  0.00  0.01  0.00
  YS02006561YS02001783    1.00   0.08  0.00  0.00  0.00  0.92  0.00  0.00  0.73  0.00
  YS02001783YS02001784    1.00   0.00  0.08  0.00  0.92  0.00  0.00  0.00  0.00  0.00
  YS02001784YS02001785    1.00   0.00  0.00  0.00  1.00  0.00  0.00  0.00  0.25  0.00
  YS02001788YS02001790    1.00   0.00  0.00  0.00  0.09  0.91  0.00  0.00  0.76  0.00
  YS02001790YS02001791    1.00   0.00  0.00  0.00  0.00  1.00  0.00  0.00  0.54  0.00
  YS02001791YS02001793    1.00   0.00  0.00  0.00  0.27  0.73  0.00  0.00  0.30  0.00
  YS02001910YS02001907    1.00   0.00  0.00  0.00  0.99  0.00  0.00  0.01  0.13  0.00
  YS02001786YS02001788    1.00   0.00  0.00  0.00  0.09  0.91  0.00  0.00  0.00  0.00
  YS02001915YS02001910    1.00   0.00  0.00  0.00  1.00  0.00  0.00  0.00  0.24  0.00
  YS02001918YS02001915    1.00   0.00  0.00  0.00  0.99  0.00  0.00  0.00  0.81  0.00
  YS02001923YS02001920    1.00   0.00  0.00  0.00  1.00  0.00  0.00  0.00  1.00  0.00
  YS02001926YS02001923    1.00   0.00  0.02  0.00  0.00  0.00  0.98  0.00  0.00  0.00
  YS02001929YS02001926    1.00   0.00  0.04  0.00  0.96  0.00  0.00  0.00  0.87  0.00
  YS02001920YS02001918    1.00   0.00  0.00  0.00  1.00  0.00  0.00  0.00  0.00  0.00
  YS02001629YS02163301    1.00   0.07  0.01  0.00  0.92  0.00  0.00  0.00  0.00  0.00
  YS02001619YS02001622    1.00   0.04  0.00  0.00  0.96  0.00  0.00  0.00  0.00  0.00
  YS02001622YS02001625    1.00   0.04  0.00  0.00  0.96  0.00  0.00  0.00  0.13  0.00
  YS02001625YS02001629    1.00   0.04  0.04  0.00  0.89  0.00  0.02  0.00  0.00  0.00
  YS02163301YS02001633    1.00   0.00  0.07  0.00  0.93  0.00  0.00  0.00  0.00  0.00
  YS02163601YS02164001    1.00   0.00  0.03  0.00  0.97  0.00  0.00  0.00  0.00  0.00
  YS02164001YS02001641    1.00   0.00  0.02  0.00  0.97  0.00  0.00  0.00  0.07  0.00
  YS02001641YS02001644    1.00   0.00  0.00  0.00  1.00  0.00  0.00  0.00  0.00  0.00
  YS02001647YS02001649    1.00   0.00  0.08  0.00  0.92  0.00  0.00  0.00  0.01  0.00
  YS02006553YS02006556    1.00   0.00  0.00  0.00  1.00  0.00  0.00  0.00  0.03  0.00
  YS02006556YS02006558    1.00   0.00  0.00  0.00  1.00  0.00  0.00  0.00  0.00  0.00
  YSB6556YSB1171          1.00   0.01  0.03  0.00  0.96  0.00  0.00  0.00  0.00  0.00
  YS02001907YS02006553    1.00   0.00  0.01  0.00  0.99  0.00  0.00  0.00  0.00  0.00
  YS02006558YS02006561    1.00   0.08  0.00  0.00  0.00  0.92  0.00  0.00  0.71  0.00
  YS02001633YS02163601    1.00   0.00  0.00  0.00  1.00  0.00  0.00  0.00  0.20  0.00
  YS02001644YS02001647    1.00   0.00  0.08  0.00  0.92  0.00  0.00  0.00  0.00  0.00
  YS02001745YS02001748    1.00   0.00  0.00  0.00  0.82  0.03  0.00  0.16  0.11  0.00
  YS02001748YS02001751    1.00   0.00  0.00  0.00  0.96  0.04  0.00  0.00  0.24  0.00
  YS02001751YS02001754    1.00   0.00  0.00  0.00  0.91  0.00  0.00  0.09  0.02  0.00
  YS02001754YS02001757    1.00   0.00  0.00  0.00  1.00  0.00  0.00  0.00  0.26  0.00
  YS02001882YS02001884    1.00   0.06  0.01  0.00  0.93  0.00  0.00  0.00  0.00  0.00
  YS02001884YS02001887    1.00   0.02  0.02  0.00  0.96  0.00  0.00  0.00  0.00  0.00
  YS02001890YS02001895    1.00   0.00  0.07  0.00  0.93  0.00  0.00  0.00  0.00  0.00
  YS02001895YS02001898    1.00   0.07  0.00  0.00  0.91  0.00  0.01  0.00  0.00  0.00
  YS02001898YS02001901    1.00   0.07  0.01  0.00  0.92  0.00  0.00  0.00  0.02  0.00
  YS02001901YS02001904    1.00   0.07  0.00  0.00  0.93  0.00  0.00  0.00  0.00  0.00
  YS02001904YS02001907    1.00   0.00  0.07  0.00  0.93  0.00  0.00  0.00  0.00  0.00
  YS02001887YS02001890    1.00   0.00  0.00  0.00  0.99  0.00  0.01  0.00  0.00  0.00
  YS02001652YS02001649    1.00   0.00  0.00  0.00  1.00  0.00  0.00  0.00  0.26  0.00
  YS02001655YS02001652    1.00   0.00  0.00  0.00  0.91  0.00  0.00  0.09  0.02  0.00
  YS02001658YS02001655    1.00   0.00  0.06  0.00  0.90  0.04  0.00  0.00  0.11  0.00
  YS02001661YS02001658    1.00   0.06  0.00  0.00  0.81  0.13  0.00  0.00  0.14  0.00
  YS02001664YS02001661    1.00   0.04  0.00  0.00  0.69  0.27  0.00  0.00  0.41  0.00
  YSB1154YSB6556          1.00   0.04  0.00  0.00  0.96  0.00  0.00  0.00  0.02  0.00
  YSB1174YSB1171          1.00   0.02  0.01  0.00  0.97  0.00  0.00  0.00  0.00  0.00
  YSB1171HS02004479       1.00   0.01  0.00  0.00  0.98  0.00  0.00  0.00  0.13  0.00
  HS02004881HS02006253    1.00   0.02  0.00  0.00  0.00  0.00  0.00  0.98  0.00  0.00
  YS02001793JiankangQianchi    1.00   0.00  0.00  0.00  1.00  0.00  0.00  0.00  0.65  0.00
  YS02001757CaochengTiaoxuchi    1.00   0.00  0.11  0.00  0.89  0.00  0.00  0.00  0.00  0.00
  WSF200WS02003060        1.00   0.00  0.11  0.00  0.89  0.00  0.00  0.00  0.66  0.00
  1                       1.00   0.00  0.00  0.00  0.00  1.00  0.00  0.00  0.31  0.00
  2                       1.00   1.00  0.00  0.00  0.00  0.00  0.00  0.00  0.00  0.00
  3                       1.00   0.24  0.00  0.00  0.00  0.76  0.00  0.00  0.05  0.00
  4                       1.00   1.00  0.00  0.00  0.00  0.00  0.00  0.00  0.00  0.00
  
  
  *************************
  Conduit Surcharge Summary
  *************************
  
  ----------------------------------------------------------------------------
                                                           Hours        Hours 
                         --------- Hours Full --------   Above Full   Capacity
  Conduit                Both Ends  Upstream  Dnstream   Normal Flow   Limited
  ----------------------------------------------------------------------------
  WS02006229WS02006228        0.01      0.01      0.01      0.38         0.01
  WS02006256WS02006235        2.54      2.57      5.55      2.85         0.01
  WS02006235WS02006234        0.01      0.01      0.01      2.63         0.01
  WS02006231WS02006230        0.01      0.01      0.01      2.89         0.01
  WS02006230WS02006229        0.01      0.04      0.01      3.97         0.01
  WS02006228WS02006109        0.01      0.01      0.01      0.89         0.01
  WS02006111WS02006112        0.01      0.01      0.50      0.01         0.01
  WS02004404WS02004405        0.01      0.01      0.01      2.69         0.01
  WS02003072WS02003073        0.01      0.01      0.01      1.64         0.01
  YS02001759YS02001757        5.16      5.16      5.32      0.01         0.01
  YS02001762YS02001759        5.10      5.10      5.16      0.01         0.01
  YS02001765YS02001762        4.99      4.99      5.10      0.01         0.01
  YS02001770YS02001767        4.85      4.87      4.87      0.01         0.40
  YS02001774YS02001770        4.76      4.76      5.06      0.01         0.01
  YS02001779YS02001774        4.29      4.29      5.06      0.01         0.01
  YS02001649YS02001757        5.12      5.12      5.32      0.01         0.01
  YS02001767YS02001765        4.87      4.87      4.99      0.01         0.01
  YS02001791YS02001793        0.01      0.01      0.14      0.01         0.01
  YS02001629YS02163301        4.70      4.70      4.82      0.01         0.01
  YS02001619YS02001622        3.77      3.77      3.83      0.01         0.01
  YS02001622YS02001625        3.83      3.83      4.53      0.01         0.01
  YS02001625YS02001629        3.78      3.78      4.53      0.01         0.01
  YS02163301YS02001633        4.82      4.82      5.01      0.01         0.01
  YS02163601YS02164001        4.99      4.99      5.12      0.01         0.01
  YS02164001YS02001641        4.99      4.99      5.04      0.01         0.01
  YS02001641YS02001644        5.04      5.04      5.05      0.01         0.36
  YS02001647YS02001649        4.51      4.51      5.12      0.01         0.01
  YS02001633YS02163601        4.95      4.95      5.12      0.01         0.01
  YS02001644YS02001647        4.51      4.51      5.05      0.01         0.01
  YS02001745YS02001748        0.01      0.01      3.11      0.01         0.01
  YS02001748YS02001751        3.36      3.36      3.90      0.01         0.01
  YS02001751YS02001754        3.90      3.90      4.36      0.01         0.01
  YS02001754YS02001757        4.53      4.53      5.32      0.01         0.01
  YS02001652YS02001649        4.55      4.55      5.12      0.01         0.01
  YS02001655YS02001652        3.97      3.97      4.45      0.01         0.01
  YS02001658YS02001655        3.16      3.16      3.97      0.01         0.01
  YS02001661YS02001658        0.01      0.01      3.16      0.01         0.01
  YS02001793JiankangQianchi        0.01      0.01      7.82      0.01         0.01
  YS02001757CaochengTiaoxuchi        3.55      3.55      5.32      0.01         0.01
  
  
  ***************
  Pumping Summary
  ***************
  
  ---------------------------------------------------------------------------------------------------------
                                                  Min       Avg       Max     Total     Power    % Time Off
                        Percent   Number of      Flow      Flow      Flow    Volume     Usage    Pump Curve
  Pump                 Utilized   Start-Ups       LPS       LPS       LPS  10^6 ltr     Kw-hr    Low   High
  ---------------------------------------------------------------------------------------------------------
  CC-Pump-1                0.00           0      0.00      0.00      0.00     0.000      0.00    0.0    0.0
  CC-Pump-2                0.00           0      0.00      0.00      0.00     0.000      0.00    0.0    0.0
  JK-Pump-1               36.60          11      0.00    300.00    300.00     3.096     25.67    0.0    0.0
  JK-Pump-2                0.00           0      0.00      0.00      0.00     0.000      0.00    0.0    0.0
  XR-Pump-1              100.00           1      0.00     95.00     95.00     2.679     18.24    0.0    0.0
  XR-Pump-2               94.70           1      0.00     95.00     95.00     2.537     16.81    0.0    0.0
  XR-Pump-3               59.91           3      0.00     95.00     95.00     1.605      9.75    0.0    0.0
  XR-Pump-4                0.00           0      0.00      0.00      0.00     0.000      0.00    0.0    0.0
  

  Analysis begun on:  Thu Jan  6 00:18:39 2022
  Analysis ended on:  Thu Jan  6 00:18:40 2022
  Total elapsed time: 00:00:01