
  EPA STORM WATER MANAGEMENT MODEL - VERSION 5.1 (Build 5.3.0.dev0)
  --------------------------------------------------------------

  WARNING 04: minimum elevation drop used for Conduit WS02004404WS02004405
  WARNING 03: negative offset ignored for Link YS02001904YS02001907
  
  *********************************************************
  NOTE: The summary statistics displayed in this report are
  based on results found at every computational time step,  
  not just on results from each reporting time step.
  *********************************************************
  
  ****************
  Analysis Options
  ****************
  Flow Units ............... LPS
  Process Models:
    Rainfall/Runoff ........ YES
    RDII ................... NO
    Snowmelt ............... NO
    Groundwater ............ NO
    Flow Routing ........... YES
    Ponding Allowed ........ NO
    Water Quality .......... NO
  Infiltration Method ...... HORTON
  Flow Routing Method ...... DYNWAVE
  Surcharge Method ......... EXTRAN
  Starting Date ............ 08/28/2015 08:00:00
  Ending Date .............. 08/28/2015 15:50:00
  Antecedent Dry Days ...... 8.0
  Report Time Step ......... 00:01:00
  Wet Time Step ............ 00:01:00
  Dry Time Step ............ 00:01:00
  Routing Time Step ........ 5.00 sec
  Variable Time Step ....... YES
  Maximum Trials ........... 8
  Number of Threads ........ 4
  Head Tolerance ........... 0.001500 m
  
  
  **************************        Volume         Depth
  Runoff Quantity Continuity     hectare-m            mm
  **************************     ---------       -------
  Total Precipitation ......         2.984         6.533
  Evaporation Loss .........         0.000         0.000
  Infiltration Loss ........         0.753         1.648
  Surface Runoff ...........         1.324         2.899
  Final Storage ............         0.907         1.987
  Continuity Error (%) .....        -0.018
  
  
  **************************        Volume        Volume
  Flow Routing Continuity        hectare-m      10^6 ltr
  **************************     ---------     ---------
  Dry Weather Inflow .......         0.616         6.165
  Wet Weather Inflow .......         1.323        13.235
  Groundwater Inflow .......         0.000         0.000
  RDII Inflow ..............         0.000         0.000
  External Inflow ..........         0.102         1.024
  External Outflow .........         1.238        12.380
  Flooding Loss ............         0.248         2.480
  Evaporation Loss .........         0.000         0.000
  Exfiltration Loss ........         0.000         0.000
  Initial Stored Volume ....         0.076         0.761
  Final Stored Volume ......         0.630         6.304
  Continuity Error (%) .....         0.096
  
  
  *************************
  Highest Continuity Errors
  *************************
  Node YS02001774 (37.83%)
  Node HS02004842 (26.48%)
  Node YS02001884 (20.84%)
  Node YSB1171 (6.19%)
  Node YS02001625 (4.97%)
  
  
  ***************************
  Time-Step Critical Elements
  ***************************
  Link 3 (79.35%)
  Link WS02006280WS02006229 (8.30%)
  Link WS02006238WS02006235 (3.38%)
  Link YS02001791YS02001793 (2.80%)
  
  
  ********************************
  Highest Flow Instability Indexes
  ********************************
  Link WS02006113WS02006111 (34)
  Link YS02006558YS02006561 (23)
  Link WS02006111WS02006112 (16)
  Link YS02001779YS02001774 (14)
  Link YS02001774YS02001770 (13)
  
  
  *************************
  Routing Time Step Summary
  *************************
  Minimum Time Step           :     0.50 sec
  Average Time Step           :     1.41 sec
  Maximum Time Step           :     5.00 sec
  Percent in Steady State     :    -0.00
  Average Iterations per Step :     3.20
  Percent Not Converging      :    13.21
  
  
  ***************************
  Subcatchment Runoff Summary
  ***************************
  
  ------------------------------------------------------------------------------------------------------------------------------
                            Total      Total      Total      Total     Imperv       Perv      Total       Total     Peak  Runoff
                           Precip      Runon       Evap      Infil     Runoff     Runoff     Runoff      Runoff   Runoff   Coeff
  Subcatchment                 mm         mm         mm         mm         mm         mm         mm    10^6 ltr      LPS
  ------------------------------------------------------------------------------------------------------------------------------
  sub0                       6.53       0.00       0.00       0.46       4.81       0.00       4.81        0.00     1.70   0.736
  sub1                       6.53       0.00       0.00       0.72       4.56       0.00       4.56        0.03     8.92   0.698
  sub2                       6.53       0.00       0.00       2.42       3.21       0.00       3.21        0.03     7.90   0.491
  sub3                       6.53       0.00       0.00       2.42       3.17       0.00       3.17        0.07    16.25   0.486
  sub4                       6.53       0.00       0.00       0.72       4.42       0.00       4.42        0.09    18.23   0.676
  sub5                       6.53       0.00       0.00       0.46       4.76       0.00       4.76        0.05    15.87   0.729
  sub7                       6.53       0.00       0.00       0.59       4.69       0.00       4.69        0.02     5.60   0.718
  sub8                       6.53       0.00       0.00       0.59       4.68       0.00       4.68        0.03     9.88   0.717
  sub9                       6.53       0.00       0.00       0.59       4.68       0.00       4.68        0.02     7.33   0.716
  sub10                      6.53       0.00       0.00       0.52       4.72       0.00       4.72        0.05    15.85   0.722
  sub11                      6.53       0.00       0.00       0.52       4.74       0.00       4.74        0.06    18.60   0.725
  sub12                      6.53       0.00       0.00       0.85       4.49       0.00       4.49        0.04    15.74   0.688
  sub14                      6.53       0.00       0.00       0.59       4.68       0.00       4.68        0.04    14.32   0.716
  sub15                      6.53       0.00       0.00       1.96       3.59       0.00       3.59        0.06    19.42   0.550
  sub16                      6.53       0.00       0.00       2.16       3.46       0.00       3.46        0.04    13.85   0.529
  sub17                      6.53       0.00       0.00       2.09       3.51       0.00       3.51        0.03    11.18   0.537
  sub22                      6.53       0.00       0.00       2.81       2.94       0.00       2.94        0.19    63.64   0.449
  sub23                      6.53       0.00       0.00       2.42       3.25       0.00       3.25        0.15    54.16   0.497
  sub60                      6.53       0.00       0.00       0.78       3.24       0.00       3.24        0.98    93.37   0.497
  sub61                      6.53       0.00       0.00       1.11       3.44       0.00       3.44        1.06   116.86   0.527
  sub62                      6.53       0.00       0.00       0.52       3.70       0.00       3.70        1.14   119.50   0.567
  sub63                      6.53       0.00       0.00       1.89       3.06       0.00       3.06        0.93   108.99   0.468
  sub64                      6.53       0.00       0.00       0.98       3.10       0.00       3.10        0.94    88.71   0.475
  sub65                      6.53       0.00       0.00       0.85       3.14       0.00       3.14        0.97    90.05   0.481
  sub66                      6.53       0.00       0.00       1.89       2.70       0.00       2.70        0.83    81.23   0.414
  sub67                      6.53       0.00       0.00       0.52       4.05       0.00       4.05        1.25   153.14   0.619
  sub68                      6.53       0.00       0.00       0.91       3.66       0.00       3.66        1.13   129.14   0.560
  sub69                      6.53       0.00       0.00       0.98       3.92       0.00       3.92        0.92   128.07   0.601
  sub70                      6.53       4.01       0.00       3.58       4.89       0.00       4.89        1.12   104.96   0.464
  sub71                      6.53       0.00       0.00       0.52       3.55       0.00       3.55        0.84    83.47   0.543
  sub72                      6.53       0.00       0.00       0.46       2.55       0.00       2.55        0.52    39.79   0.390
  sub73                      6.53       4.76       0.00       3.84       5.03       0.00       5.03        1.18    90.59   0.445
  sub74                      6.53       0.00       0.00       4.90       1.18       0.00       1.18        0.47    71.42   0.181
  
  
  ******************
  Node Depth Summary
  ******************
  
  ---------------------------------------------------------------------------------
                                 Average  Maximum  Maximum  Time of Max    Reported
                                   Depth    Depth      HGL   Occurrence   Max Depth
  Node                 Type       Meters   Meters   Meters  days hr:min      Meters
  ---------------------------------------------------------------------------------
  WS02001211           JUNCTION     0.68     0.71     5.54     0  02:43        0.71
  WS02001212           JUNCTION     0.39     0.42     5.49     0  02:42        0.42
  WS02001213           JUNCTION     0.60     0.67     5.43     0  02:41        0.67
  WS02003069           JUNCTION     0.38     0.49     5.07     0  02:40        0.49
  WS02003072           JUNCTION     0.45     0.55     4.92     0  02:41        0.55
  WS02003073           JUNCTION     0.27     0.33     4.40     0  02:42        0.33
  WS02003060           JUNCTION     0.34     0.43     5.36     0  02:40        0.43
  WS02003066           JUNCTION     0.17     0.26     5.81     0  02:37        0.26
  WS02003059           JUNCTION     0.66     0.72     5.41     0  02:41        0.72
  WS02003067           JUNCTION     0.45     0.64     5.96     0  02:37        0.64
  WS02004401           JUNCTION     0.51     0.74     6.74     0  02:33        0.74
  WS02004402           JUNCTION     0.55     0.77     6.73     0  02:33        0.77
  WS02004403           JUNCTION     0.57     0.79     6.72     0  02:33        0.79
  WS02004404           JUNCTION     0.65     0.86     6.71     0  02:33        0.86
  WS02004406           JUNCTION     0.66     0.87     6.70     0  02:33        0.87
  WS02004409           JUNCTION     0.33     0.55     6.32     0  02:36        0.55
  WS02004410           JUNCTION     0.35     0.57     6.29     0  02:36        0.57
  WS02004411           JUNCTION     0.38     0.59     6.27     0  02:36        0.59
  WS02004412           JUNCTION     0.40     0.60     6.24     0  02:37        0.60
  WS02004413           JUNCTION     0.55     0.77     6.24     0  02:37        0.77
  WS02004405           JUNCTION     0.65     0.86     6.71     0  02:33        0.86
  WS02006109           JUNCTION     0.57     0.81     7.43     0  02:27        0.81
  WS02006110           JUNCTION     0.59     0.80     7.39     0  02:27        0.80
  WS02006111           JUNCTION     0.15     0.24     6.95     0  02:28        0.24
  WS02006112           JUNCTION     0.66     0.91     6.79     0  02:32        0.91
  WS02006113           JUNCTION     0.22     0.38     7.27     0  02:27        0.38
  WS02006115           JUNCTION     0.40     0.63     6.76     0  02:32        0.63
  WS02006116           JUNCTION     0.48     0.71     6.75     0  02:32        0.71
  WS02006230           JUNCTION     0.48     0.76     7.50     0  02:28        0.76
  WS02006231           JUNCTION     0.28     0.42     7.54     0  02:29        0.42
  WS02006232           JUNCTION     0.38     0.54     7.58     0  02:34        0.54
  WS02006234           JUNCTION     0.29     0.43     7.59     0  02:33        0.43
  WS02006235           JUNCTION     0.32     0.46     7.62     0  02:33        0.45
  WS02006238           JUNCTION     0.33     0.48     7.62     0  02:33        0.47
  WS02006240           JUNCTION     0.20     0.33     7.62     0  02:34        0.33
  WS02006242           JUNCTION     0.22     0.36     7.62     0  02:35        0.35
  WS02006243           JUNCTION     0.10     0.21     7.63     0  02:35        0.21
  WS02006245           JUNCTION     0.07     0.18     7.66     0  02:19        0.18
  WS02006247           JUNCTION     0.08     0.20     7.70     0  02:19        0.20
  WS02006248           JUNCTION     0.06     0.16     7.74     0  02:18        0.16
  WS02006249           JUNCTION     0.09     0.21     7.80     0  02:18        0.21
  WS02006239           JUNCTION     0.27     0.41     7.62     0  02:33        0.41
  WS02006251           JUNCTION     0.07     0.18     7.85     0  02:17        0.18
  WS02006252           JUNCTION     0.00     0.00     8.24     0  00:00        0.00
  WS02006253           JUNCTION     0.11     0.24     7.89     0  02:16        0.24
  WS02006256           JUNCTION     0.94     1.70     8.64     0  02:32        1.25
  WS02004138           JUNCTION     0.16     0.17     7.42     0  06:51        0.17
  WS02004407           JUNCTION     0.15     0.25     6.56     0  02:34        0.25
  WS02006228           JUNCTION     0.55     0.82     7.47     0  02:27        0.82
  WS02006229           JUNCTION     0.51     0.79     7.49     0  02:27        0.79
  WS02006280           JUNCTION     0.06     0.16     8.43     0  02:17        0.16
  WS02006284           JUNCTION     0.36     0.50     8.90     0  02:16        0.50
  WS02006287           JUNCTION     0.09     0.23     9.19     0  02:16        0.23
  WSF200               JUNCTION     0.14     0.25     5.48     0  02:37        0.25
  HS02004901           JUNCTION     0.12     0.25    10.07     0  02:14        0.25
  HS02004881           JUNCTION     0.01     0.03     9.06     0  02:16        0.03
  HS02004876           JUNCTION     0.04     0.11     9.14     0  02:13        0.11
  HS02004870           JUNCTION     0.01     0.05     9.33     0  02:16        0.05
  HS02004862           JUNCTION     0.02     0.05     9.44     0  02:17        0.05
  HS02004856           JUNCTION     0.08     0.11     9.53     0  02:17        0.11
  HS02004852           JUNCTION     0.01     0.03     9.54     0  02:18        0.03
  HS02004848           JUNCTION     0.01     0.03     9.63     0  02:16        0.03
  HS02004842           JUNCTION     0.33     0.36     9.63     0  02:16        0.36
  HS02004837           JUNCTION     0.03     0.05     9.63     0  02:16        0.05
  HS02004830           JUNCTION     0.04     0.07     9.53     0  02:17        0.07
  HS02004824           JUNCTION     0.02     0.04     9.45     0  02:20        0.04
  HS02004817           JUNCTION     0.44     0.54     9.39     0  02:17        0.54
  HS02004807           JUNCTION     0.12     0.22     9.39     0  02:17        0.22
  HS02004802           JUNCTION     0.16     0.25     9.38     0  02:17        0.25
  HS02004799           JUNCTION     0.12     0.28     9.49     0  02:15        0.28
  HS02004792           JUNCTION     0.03     0.11     9.63     0  02:14        0.11
  HS02004788           JUNCTION     0.02     0.08     9.98     0  02:15        0.08
  HS02004785           JUNCTION     0.04     0.15    10.05     0  02:14        0.15
  HS02004777           JUNCTION     0.14     0.27    10.07     0  02:14        0.27
  HS02004770           JUNCTION     0.11     0.24    10.07     0  02:14        0.24
  HS02004480           JUNCTION     0.08     0.22     9.46     0  02:15        0.22
  HS02004479           JUNCTION     0.11     0.26     9.46     0  02:15        0.26
  HS02004478           JUNCTION     0.06     0.14     9.37     0  02:16        0.14
  YS02001745           JUNCTION     0.50     0.85     8.37     0  04:38        0.85
  YS02001748           JUNCTION     0.87     1.30     8.37     0  04:35        1.29
  YS02001751           JUNCTION     1.04     1.50     8.38     0  04:35        1.50
  YS02001754           JUNCTION     1.29     1.77     8.38     0  04:35        1.77
  YS02001762           JUNCTION     1.49     1.98     8.38     0  04:35        1.97
  YS02001765           JUNCTION     1.44     1.93     8.38     0  04:35        1.93
  YS02001767           JUNCTION     1.41     1.89     8.38     0  04:35        1.88
  YS02001770           JUNCTION     1.40     1.88     8.38     0  04:35        1.88
  YS02001774           JUNCTION     1.47     1.95     8.37     0  04:28        1.95
  YS02001779           JUNCTION     1.22     1.68     8.37     0  04:24        1.68
  YS02001882           JUNCTION     0.34     0.51     7.22     0  02:52        0.51
  YS02001884           JUNCTION     0.43     0.61     7.22     0  02:51        0.61
  YS02001759           JUNCTION     1.52     2.02     8.38     0  04:35        2.00
  YS02001887           JUNCTION     0.51     0.69     7.22     0  02:51        0.69
  YS02001890           JUNCTION     0.54     0.72     7.22     0  02:51        0.72
  YS02001898           JUNCTION     0.31     0.47     7.21     0  02:51        0.47
  YS02001901           JUNCTION     0.42     0.60     7.21     0  02:53        0.60
  YS02001904           JUNCTION     0.40     0.57     7.20     0  02:51        0.57
  YS02001907           JUNCTION     0.73     0.91     7.20     0  02:53        0.91
  YS02001910           JUNCTION     0.52     0.70     7.20     0  02:50        0.70
  YS02001915           JUNCTION     0.32     0.48     7.20     0  02:51        0.48
  YS02001918           JUNCTION     0.09     0.14     7.20     0  02:55        0.13
  YS02001619           JUNCTION     1.01     1.50     8.43     0  03:50        1.44
  YS02001629           JUNCTION     1.35     1.84     8.39     0  04:23        1.82
  YS02001641           JUNCTION     1.46     1.93     8.37     0  04:23        1.92
  YS02001644           JUNCTION     1.46     1.92     8.35     0  04:19        1.92
  YS02001652           JUNCTION     1.31     2.02     8.62     0  03:15        1.79
  YS02001655           JUNCTION     1.07     2.14     8.99     0  03:15        1.54
  YS02001920           JUNCTION     0.19     0.23     7.23     0  02:56        0.23
  YS02001923           JUNCTION     0.07     0.09     7.35     0  03:01        0.09
  YS02001926           JUNCTION     0.15     0.19     7.63     0  03:01        0.19
  YS02001929           JUNCTION     0.07     0.10     7.79     0  03:01        0.10
  YS02001658           JUNCTION     0.81     1.26     8.40     0  04:27        1.26
  YS02001661           JUNCTION     0.60     1.01     8.41     0  04:27        1.01
  YS02001664           JUNCTION     0.25     0.49     8.42     0  04:26        0.49
  YS02001622           JUNCTION     1.03     1.52     8.42     0  03:50        1.47
  YS02001633           JUNCTION     1.44     1.93     8.39     0  04:23        1.91
  YS02001649           JUNCTION     1.50     1.99     8.38     0  04:46        1.98
  YS02001757           JUNCTION     1.62     2.12     8.38     0  04:35        2.11
  YS02001895           JUNCTION     0.30     0.47     7.21     0  02:51        0.47
  YS02001625           JUNCTION     1.31     1.78     8.38     0  03:49        1.77
  YS02163301           JUNCTION     1.38     1.87     8.39     0  04:23        1.85
  YS02163601           JUNCTION     1.50     1.98     8.37     0  04:19        1.96
  YS02164001           JUNCTION     1.44     1.91     8.37     0  04:23        1.90
  YS02001647           JUNCTION     1.29     1.76     8.37     0  04:46        1.75
  YSB1154              JUNCTION     0.25     0.40     9.46     0  02:15        0.40
  YSB6556              JUNCTION     0.15     0.29     9.46     0  02:15        0.29
  YSB1174              JUNCTION     0.21     0.35     9.46     0  02:15        0.35
  YSB1171              JUNCTION     0.41     0.56     9.46     0  02:15        0.56
  YS02006553           JUNCTION     0.74     0.92     7.20     0  02:53        0.92
  YS02006561           JUNCTION     0.17     0.25     6.91     0  02:50        0.25
  YS02006556           JUNCTION     0.71     0.89     7.20     0  02:53        0.89
  YS02006558           JUNCTION     0.75     0.93     7.20     0  02:53        0.93
  YS02001783           JUNCTION     0.29     0.45     6.59     0  02:52        0.45
  YS02001784           JUNCTION     0.32     0.48     6.54     0  02:52        0.48
  YS02001786           JUNCTION     0.27     0.40     6.43     0  02:51        0.40
  YS02001788           JUNCTION     0.20     0.31     6.28     0  02:52        0.31
  YS02001790           JUNCTION     0.24     0.37     6.02     0  02:53        0.37
  YS02001791           JUNCTION     0.16     0.36     5.83     0  02:29        0.28
  YS02001793           JUNCTION     0.32     3.18     8.01     0  02:28        0.94
  WS02004139           JUNCTION     0.62     0.65     5.56     0  02:43        0.65
  WSC                  OUTFALL      0.27     0.33     1.00     0  02:42        0.33
  3                    OUTFALL      0.09     0.22     6.22     0  02:33        0.22
  4                    OUTFALL      0.00     0.00     7.00     0  00:00        0.00
  5                    OUTFALL      0.00     0.00     5.00     0  00:00        0.00
  JK-storage           STORAGE      4.14     4.88     5.68     0  02:44        4.88
  CC-storage           STORAGE      0.87     1.38     8.38     0  04:34        1.38
  XR-storage           STORAGE      7.31     7.72     5.72     0  02:42        7.72
  
  
  *******************
  Node Inflow Summary
  *******************
  
  -------------------------------------------------------------------------------------------------
                                  Maximum  Maximum                  Lateral       Total        Flow
                                  Lateral    Total  Time of Max      Inflow      Inflow     Balance
                                   Inflow   Inflow   Occurrence      Volume      Volume       Error
  Node                 Type           LPS      LPS  days hr:min    10^6 ltr    10^6 ltr     Percent
  -------------------------------------------------------------------------------------------------
  WS02001211           JUNCTION      7.35   294.38     0  06:52       0.207        7.04       0.454
  WS02001212           JUNCTION      0.00   293.45     0  02:52           0        7.01       0.224
  WS02001213           JUNCTION      0.00   293.85     0  02:52           0        6.99       0.257
  WS02003069           JUNCTION      0.32   691.77     0  02:40     0.00902        10.3       0.161
  WS02003072           JUNCTION      0.00   691.71     0  02:41           0        10.3       0.218
  WS02003073           JUNCTION      1.82   693.50     0  02:41      0.0514        10.3       0.226
  WS02003060           JUNCTION     16.53   691.50     0  02:40       0.466        10.3       0.157
  WS02003066           JUNCTION      0.00   385.04     0  02:37           0        2.91       0.071
  WS02003059           JUNCTION      0.00   294.61     0  02:51           0        6.98       0.459
  WS02003067           JUNCTION      0.00   385.01     0  02:37           0        2.92       0.179
  WS02004401           JUNCTION      0.00   390.69     0  02:31           0        3.05       0.426
  WS02004402           JUNCTION      0.00   389.89     0  02:31           0        3.04       0.426
  WS02004403           JUNCTION      0.00   389.28     0  02:32           0        3.03       0.406
  WS02004404           JUNCTION      0.16   389.20     0  02:32     0.00457        3.02       0.340
  WS02004406           JUNCTION      0.00   389.09     0  02:33           0           3       0.803
  WS02004409           JUNCTION      0.00   388.97     0  02:34           0        2.97       0.192
  WS02004410           JUNCTION      0.00   387.59     0  02:34           0        2.96       0.254
  WS02004411           JUNCTION      0.00   386.50     0  02:35           0        2.96       0.289
  WS02004412           JUNCTION      0.00   385.74     0  02:36           0        2.95       0.354
  WS02004413           JUNCTION      0.00   385.28     0  02:36           0        2.94       0.594
  WS02004405           JUNCTION      0.04   389.11     0  02:32     0.00107        3.01       0.485
  WS02006109           JUNCTION      1.23   391.15     0  02:27      0.0347        3.09       0.426
  WS02006110           JUNCTION      0.00   391.14     0  02:27           0        3.08       0.381
  WS02006111           JUNCTION      0.00   398.69     0  02:27           0        3.06       0.050
  WS02006112           JUNCTION     11.18   397.92     0  02:28      0.0301        3.09       0.562
  WS02006113           JUNCTION      0.00   391.21     0  02:27           0        3.07       0.109
  WS02006115           JUNCTION      0.00   394.63     0  02:29           0        3.07       0.330
  WS02006116           JUNCTION      0.00   391.91     0  02:31           0        3.06       0.336
  WS02006230           JUNCTION     10.28   190.70     0  02:34        0.29        2.09       0.360
  WS02006231           JUNCTION      0.00   180.34     0  02:34           0         1.8      -0.073
  WS02006232           JUNCTION      0.00   180.59     0  02:33           0        1.79       0.318
  WS02006234           JUNCTION      0.00   181.38     0  02:33           0        1.79      -0.180
  WS02006235           JUNCTION      0.00   204.99     0  02:19           0        1.98       0.276
  WS02006238           JUNCTION      0.00   131.55     0  02:19           0       0.481       0.014
  WS02006240           JUNCTION      0.00    57.80     0  02:20           0       0.316       0.579
  WS02006242           JUNCTION      0.00    49.76     0  02:20           0       0.237       0.593
  WS02006243           JUNCTION      0.00    49.80     0  02:19           0       0.183      -0.252
  WS02006245           JUNCTION      0.00    49.82     0  02:19           0       0.173       0.710
  WS02006247           JUNCTION      0.00    49.87     0  02:18           0       0.172       0.075
  WS02006248           JUNCTION      0.00    49.89     0  02:18           0       0.172      -0.025
  WS02006249           JUNCTION      0.00    49.94     0  02:17           0       0.173       0.271
  WS02006239           JUNCTION      0.00    76.55     0  02:20           0         0.4      -0.029
  WS02006251           JUNCTION      0.08    50.02     0  02:16     0.00217       0.173       0.043
  WS02006252           JUNCTION      0.00     0.00     0  00:00           0           0       0.000 ltr
  WS02006253           JUNCTION      1.70    49.97     0  02:16     0.00389       0.171       0.083
  WS02006256           JUNCTION      0.00   600.00     0  02:32           0        3.73       0.267
  WS02004138           JUNCTION      0.00   285.00     0  02:04           0        6.86       0.047
  WS02004407           JUNCTION      0.00   389.00     0  02:33           0        2.97       0.096
  WS02006228           JUNCTION      0.00   390.14     0  02:27           0        3.06       0.265
  WS02006229           JUNCTION      0.00   390.36     0  02:26           0        3.08       0.352
  WS02006280           JUNCTION      0.00   252.68     0  02:17           0        1.01       0.007
  WS02006284           JUNCTION      0.10   252.68     0  02:16      0.0027        1.01       0.107
  WS02006287           JUNCTION      0.00   252.56     0  02:16           0        1.01       0.072
  WSF200               JUNCTION      0.00   385.03     0  02:37           0        2.91       0.053
  HS02004901           JUNCTION     13.85    13.85     0  02:09      0.0362      0.0363       5.082
  HS02004881           JUNCTION      5.60    48.66     0  02:16      0.0158       0.167       0.037
  HS02004876           JUNCTION      8.92    43.39     0  02:16      0.0303       0.152       0.350
  HS02004870           JUNCTION      9.88    34.64     0  02:16      0.0299       0.122       0.088
  HS02004862           JUNCTION      8.10    25.41     0  02:17      0.0355      0.0919       0.184
  HS02004856           JUNCTION      7.33    17.37     0  02:16      0.0225      0.0578       2.552
  HS02004852           JUNCTION      0.00    10.50     0  02:16           0      0.0353       0.146
  HS02004848           JUNCTION     16.25    16.25     0  02:19      0.0714      0.0714       0.061
  HS02004842           JUNCTION      0.00     6.34     0  02:29           0      0.0491      36.021
  HS02004837           JUNCTION     22.20    27.47     0  02:16       0.231       0.267       0.295
  HS02004830           JUNCTION      0.15    27.60     0  02:16     0.00423       0.258       0.481
  HS02004824           JUNCTION     18.28    45.66     0  02:19      0.0935        0.35       0.154
  HS02004817           JUNCTION      0.60    46.25     0  02:20      0.0169       0.366       4.767
  HS02004807           JUNCTION     18.60    63.20     0  02:18       0.055       0.405       1.056
  HS02004802           JUNCTION      0.00    63.61     0  02:19           0         0.4       1.025
  HS02004799           JUNCTION     14.32   161.56     0  02:14      0.0445       0.531       0.430
  HS02004792           JUNCTION     63.92   147.52     0  02:14       0.193       0.487       0.084
  HS02004788           JUNCTION     21.09    85.81     0  02:14       0.109       0.295       0.130
  HS02004785           JUNCTION      0.15    65.08     0  02:14     0.00423       0.188       0.258
  HS02004777           JUNCTION      0.03    65.42     0  02:13    0.000846       0.188       2.825
  HS02004770           JUNCTION     54.16    66.68     0  02:11       0.155       0.189       1.662
  HS02004480           JUNCTION      0.00   190.55     0  02:15           0       0.621       0.120
  HS02004479           JUNCTION      0.00    29.57     0  02:16           0       0.103       0.716
  HS02004478           JUNCTION      0.00   252.54     0  02:16           0        1.01       0.061
  YS02001745           JUNCTION     93.38    93.38     0  02:59       0.983       0.984       1.163
  YS02001748           JUNCTION      0.04   188.99     0  03:11     0.00127       0.978       2.443
  YS02001751           JUNCTION      0.01   194.56     0  03:10     0.00031       0.954       2.545
  YS02001754           JUNCTION      0.26   139.71     0  03:15     0.00733       0.934       2.674
  YS02001762           JUNCTION      0.00   133.33     0  03:07           0        1.07       2.004
  YS02001765           JUNCTION      0.00   144.41     0  02:33           0        1.07       2.313
  YS02001767           JUNCTION      0.54   132.28     0  03:07      0.0151        1.09       3.401
  YS02001770           JUNCTION    119.65   140.54     0  02:51        1.14        1.15       2.816
  YS02001774           JUNCTION      0.00    50.35     0  02:13           0      0.0663      60.855
  YS02001779           JUNCTION      0.01    32.65     0  03:07    0.000141      0.0293     107.366
  YS02001882           JUNCTION      0.00     4.83     0  02:06           0      0.0061      40.420
  YS02001884           JUNCTION      0.00    13.80     0  02:05           0      0.0242      26.321
  YS02001759           JUNCTION    116.90   248.19     0  02:52        1.06        2.09       1.086
  YS02001887           JUNCTION    153.59   153.63     0  02:38        1.26        1.27       0.580
  YS02001890           JUNCTION      0.00   153.05     0  02:41           0        1.25       0.648
  YS02001898           JUNCTION      0.00   152.14     0  02:40           0        1.23       0.190
  YS02001901           JUNCTION      0.00   152.22     0  02:51           0        1.23       0.464
  YS02001904           JUNCTION      0.00   152.46     0  02:51           0        1.23       0.431
  YS02001907           JUNCTION      0.00   280.08     0  02:57           0        2.65       0.849
  YS02001910           JUNCTION      0.00   127.86     0  03:02           0        1.43       0.731
  YS02001915           JUNCTION     83.49   126.68     0  02:58       0.838        1.43       0.333
  YS02001918           JUNCTION      0.00    42.96     0  03:02           0       0.597       0.207
  YS02001619           JUNCTION     81.23    81.23     0  02:56       0.828       0.828       1.488
  YS02001629           JUNCTION      0.00   170.17     0  03:15           0       0.752       4.020
  YS02001641           JUNCTION      0.00   176.70     0  02:54           0        1.62       1.317
  YS02001644           JUNCTION     88.75   407.02     0  04:40       0.944        3.82       0.691
  YS02001652           JUNCTION      0.00   172.54     0  02:50           0       0.857       2.790
  YS02001655           JUNCTION      0.15   312.95     0  03:15     0.00434       0.886       2.751
  YS02001920           JUNCTION      2.87    42.66     0  03:01      0.0809       0.599       0.364
  YS02001923           JUNCTION      0.04    39.79     0  03:01     0.00106       0.518       0.064
  YS02001926           JUNCTION      0.05    39.83     0  03:01     0.00147        0.52       0.453
  YS02001929           JUNCTION     39.79    39.79     0  03:01       0.519       0.519       0.063
  YS02001658           JUNCTION      0.00   299.92     0  03:41           0       0.956       2.473
  YS02001661           JUNCTION      0.00   250.48     0  03:41           0       0.996       2.159
  YS02001664           JUNCTION    108.99   145.24     0  04:26       0.926       0.951       0.552
  YS02001622           JUNCTION      0.00   122.56     0  03:19           0        0.82       4.023
  YS02001633           JUNCTION     90.25   177.73     0  02:52       0.972        1.68       1.952
  YS02001649           JUNCTION      0.00   380.14     0  02:53           0        3.35       1.106
  YS02001757           JUNCTION      0.00   684.72     0  02:54           0        5.06       1.846
  YS02001895           JUNCTION      0.00   152.41     0  02:41           0        1.24       0.315
  YS02001625           JUNCTION      0.00   171.98     0  03:16           0       0.791       5.229
  YS02163301           JUNCTION      0.00    93.04     0  02:52           0       0.731       3.390
  YS02163601           JUNCTION      0.11   177.00     0  02:52      0.0031        1.64       1.860
  YS02164001           JUNCTION      0.00   176.16     0  02:52           0        1.62       1.252
  YS02001647           JUNCTION      0.00   281.11     0  04:41           0        2.79       1.016
  YSB1154              JUNCTION     15.87    15.87     0  02:14      0.0539      0.0553       2.681
  YSB6556              JUNCTION      0.00    15.85     0  02:16           0      0.0562       2.267
  YSB1174              JUNCTION     15.74    15.74     0  02:08      0.0393      0.0403       3.290
  YSB1171              JUNCTION      0.00    29.53     0  02:14           0       0.102       6.602
  YS02006553           JUNCTION      0.00   279.14     0  02:57           0        2.64       0.550
  YS02006561           JUNCTION      0.00   424.42     0  02:51           0        3.74       0.014
  YS02006556           JUNCTION      0.00   278.64     0  02:57           0        2.65       0.398
  YS02006558           JUNCTION    130.02   407.02     0  02:50        1.15        3.77       0.128
  YS02001783           JUNCTION      0.00   406.82     0  02:52           0        3.74       0.044
  YS02001784           JUNCTION      1.06   407.87     0  02:52      0.0299        3.76       0.072
  YS02001786           JUNCTION      0.06   407.90     0  02:52     0.00159        3.76       0.070
  YS02001788           JUNCTION      0.07   407.90     0  02:53       0.002        3.76       0.041
  YS02001790           JUNCTION      0.15   408.06     0  02:52     0.00437        3.77       0.050
  YS02001791           JUNCTION      0.00   407.92     0  02:53           0        3.76       0.024
  YS02001793           JUNCTION      0.00  1031.15     0  02:28           0        3.92       0.010
  WS02004139           JUNCTION      0.32   285.46     0  06:51     0.00905        6.86       0.442
  WSC                  OUTFALL       0.00   693.46     0  02:42           0        10.3       0.000
  3                    OUTFALL       0.00   565.95     0  02:33           0        2.08       0.000
  4                    OUTFALL       0.00     0.00     0  00:00           0           0       0.000 ltr
  5                    OUTFALL       0.00     0.00     0  00:00           0           0       0.000 ltr
  JK-storage           STORAGE       0.00  1224.76     0  02:28           0        4.07       0.133
  CC-storage           STORAGE       0.00   684.23     0  02:54           0        3.92       1.684
  XR-storage           STORAGE     351.12   351.12     0  02:52        7.29        7.89       0.000
  
  
  **********************
  Node Surcharge Summary
  **********************
  
  Surcharging occurs when water rises above the top of the highest conduit.
  ---------------------------------------------------------------------
                                               Max. Height   Min. Depth
                                   Hours       Above Crown    Below Rim
  Node                 Type      Surcharged         Meters       Meters
  ---------------------------------------------------------------------
  WS02006256           JUNCTION        0.01          0.405        0.645
  YS02001748           JUNCTION        3.86          0.217        0.973
  YS02001751           JUNCTION        4.35          0.499        0.701
  YS02001754           JUNCTION        4.77          0.718        0.432
  YS02001762           JUNCTION        5.31          0.982        0.168
  YS02001765           JUNCTION        5.27          0.931        0.169
  YS02001767           JUNCTION        5.23          0.891        0.139
  YS02001770           JUNCTION        5.19          0.852        0.068
  YS02001774           JUNCTION        5.30          0.953        0.097
  YS02001779           JUNCTION        4.67          0.680        0.000
  YS02001759           JUNCTION        5.34          1.017        0.193
  YS02001619           JUNCTION        4.26          0.500        0.110
  YS02001629           JUNCTION        4.28          0.459        0.011
  YS02001641           JUNCTION        5.29          0.931        0.169
  YS02001644           JUNCTION        5.29          0.920        0.000
  YS02001652           JUNCTION        4.89          0.989        0.141
  YS02001655           JUNCTION        4.40          1.138        0.062
  YS02001658           JUNCTION        3.88          0.260        1.040
  YS02001622           JUNCTION        4.32          0.515        0.105
  YS02001633           JUNCTION        5.26          0.914        0.146
  YS02001649           JUNCTION        5.32          0.986        0.064
  YS02001757           JUNCTION        5.43          1.116        0.094
  YS02001625           JUNCTION        5.02          0.780        0.000
  YS02163301           JUNCTION        5.21          0.872        0.158
  YS02163601           JUNCTION        5.32          0.977        0.103
  YS02164001           JUNCTION        5.27          0.914        0.186
  YS02001647           JUNCTION        4.95          0.758        0.142
  YS02001793           JUNCTION        0.01          2.181        0.419
  
  
  *********************
  Node Flooding Summary
  *********************
  
  Flooding refers to all water that overflows a node, whether it ponds or not.
  --------------------------------------------------------------------------
                                                             Total   Maximum
                                 Maximum   Time of Max       Flood    Ponded
                        Hours       Rate    Occurrence      Volume     Depth
  Node                 Flooded       LPS   days hr:min    10^6 ltr    Meters
  --------------------------------------------------------------------------
  YS02001779              0.22      9.52      0  04:28       0.003     0.000
  YS02001644              3.46    407.02      0  04:40       2.276     0.000
  YS02001625              0.01      5.42      0  03:50       0.000     0.000
  XR-storage              1.64     66.12      0  02:52       0.201     0.000
  
  
  **********************
  Storage Volume Summary
  **********************
  
  --------------------------------------------------------------------------------------------------
                         Average     Avg  Evap Exfil       Maximum     Max    Time of Max    Maximum
                          Volume    Pcnt  Pcnt  Pcnt        Volume    Pcnt     Occurrence    Outflow
  Storage Unit           1000 m3    Full  Loss  Loss       1000 m3    Full    days hr:min        LPS
  --------------------------------------------------------------------------------------------------
  JK-storage               0.208      71     0     0         0.245      84       0  02:44     975.13
  CC-storage               2.430      15     0     0         3.833      24       0  04:34     110.65
  XR-storage               0.877      95     0     0         0.926     100       0  02:42     285.00
  
  
  ***********************
  Outfall Loading Summary
  ***********************
  
  -----------------------------------------------------------
                         Flow       Avg       Max       Total
                         Freq      Flow      Flow      Volume
  Outfall Node           Pcnt       LPS       LPS    10^6 ltr
  -----------------------------------------------------------
  WSC                  100.00    457.70    693.46      10.302
  3                     79.38    190.44    565.95       2.078
  4                      0.00      0.00      0.00       0.000
  5                      0.00      0.00      0.00       0.000
  -----------------------------------------------------------
  System                44.84    648.15   1255.00      12.380
  
  
  ********************
  Link Flow Summary
  ********************
  
  -----------------------------------------------------------------------------
                                 Maximum  Time of Max   Maximum    Max/    Max/
                                  |Flow|   Occurrence   |Veloc|    Full    Full
  Link                 Type          LPS  days hr:min     m/sec    Flow   Depth
  -----------------------------------------------------------------------------
  WS02003066WSF200     CONDUIT    385.03     0  02:37      2.58    0.07    0.19
  WS02006287WS02006284 CONDUIT    252.58     0  02:16      1.74    0.12    0.24
  WS02006284WS02006280 CONDUIT    252.68     0  02:17      1.98    0.11    0.22
  WS02006280WS02006229 CONDUIT    252.69     0  02:17      3.18    0.05    0.16
  WS02006229WS02006228 CONDUIT    390.14     0  02:27      0.78    1.29    0.99
  WS02006256WS02006235 CONDUIT    166.35     0  05:56      2.55    1.76    1.00
  WS02006253WS02006251 CONDUIT     49.94     0  02:16      0.53    0.15    0.30
  WS02006252WS02006251 CONDUIT      0.00     0  00:00      0.00    0.00    0.00
  WS02006251WS02006249 CONDUIT     49.94     0  02:17      0.58    0.14    0.28
  WS02006249WS02006248 CONDUIT     49.89     0  02:18      0.69    0.27    0.24
  WS02006248WS02006247 CONDUIT     49.87     0  02:18      0.66    0.11    0.25
  WS02006247WS02006245 CONDUIT     49.82     0  02:19      0.61    0.40    0.27
  WS02006245WS02006243 CONDUIT     49.80     0  02:19      0.74    0.15    0.26
  WS02006243WS02006242 CONDUIT     49.76     0  02:20      0.60    0.11    0.38
  WS02006242WS02006240 CONDUIT     51.35     0  02:22      0.50    0.20    0.48
  WS02006240WS02006239 CONDUIT     50.50     0  04:08      0.71    0.16    0.50
  WS02006239WS02006238 CONDUIT     79.26     0  04:07      0.66    0.25    0.62
  WS02006238WS02006235 CONDUIT    117.58     0  05:14      1.02    0.26    0.66
  WS02006235WS02006234 CONDUIT    181.38     0  02:33      0.90    1.91    0.61
  WS02006234WS02006232 CONDUIT    180.59     0  02:33      0.78    0.37    0.69
  WS02006232WS02006231 CONDUIT    180.34     0  02:34      0.69    0.38    0.68
  WS02006231WS02006230 CONDUIT    180.42     0  02:34      1.02    2.74    0.57
  WS02006230WS02006229 CONDUIT    191.61     0  02:35      0.52    4.26    1.00
  WS02006228WS02006109 CONDUIT    389.92     0  02:27      0.78    1.70    1.00
  WS02006116WS02004401 CONDUIT    390.69     0  02:31      0.65    0.54    0.72
  WS02006115WS02006116 CONDUIT    391.91     0  02:31      0.77    0.50    0.64
  WS02006113WS02006111 CONDUIT    398.69     0  02:27      2.20    0.48    0.39
  WS02006112WS02006115 CONDUIT    394.63     0  02:29      0.63    0.23    0.76
  WS02006111WS02006112 CONDUIT    391.03     0  02:28      1.14    0.19    0.65
  WS02006110WS02006113 CONDUIT    391.21     0  02:27      0.98    0.36    0.74
  WS02006109WS02006110 CONDUIT    391.14     0  02:27      0.80    0.75    0.93
  WS02004411WS02004412 CONDUIT    385.74     0  02:36      0.94    0.55    0.60
  WS02004401WS02004402 CONDUIT    389.89     0  02:31      0.62    0.47    0.75
  WS02004413WS02003067 CONDUIT    385.01     0  02:37      0.93    0.16    0.52
  WS02004412WS02004413 CONDUIT    385.28     0  02:36      0.85    0.26    0.69
  WS02004410WS02004411 CONDUIT    386.50     0  02:35      0.83    0.53    0.58
  WS02004409WS02004410 CONDUIT    387.59     0  02:34      0.87    0.50    0.56
  WS02004407WS02004409 CONDUIT    388.97     0  02:34      1.35    0.14    0.40
  WS02004406WS02004407 CONDUIT    389.00     0  02:33      0.86    0.17    0.56
  WS02004405WS02004406 CONDUIT    389.09     0  02:33      0.54    0.77    0.86
  WS02004404WS02004405 CONDUIT    389.07     0  02:32      0.54    3.81    0.86
  WS02004403WS02004404 CONDUIT    389.04     0  02:32      0.56    0.28    0.83
  WS02004402WS02004403 CONDUIT    389.28     0  02:32      0.60    0.56    0.78
  WS02004139WS02001211 CONDUIT    287.03     0  06:52      0.54    0.36    0.52
  WS02004138WS02004139 CONDUIT    285.14     0  06:51      2.39    0.06    0.38
  WS02003067WS02003066 CONDUIT    385.04     0  02:37      1.00    0.12    0.37
  WS02001213WS02003059 CONDUIT    294.61     0  02:51      0.59    0.49    0.68
  WS02001212WS02001213 CONDUIT    293.85     0  02:52      1.19    0.45    0.39
  WS02001211WS02001212 CONDUIT    293.45     0  02:52      0.67    0.22    0.56
  WS02003072WS02003073 CONDUIT    691.68     0  02:41      1.55    1.49    0.42
  WS02003069WS02003072 CONDUIT    691.71     0  02:41      1.47    0.33    0.43
  WS02003060WS02003069 CONDUIT    691.45     0  02:40      1.73    0.27    0.38
  WS02003059WS02003060 CONDUIT    295.68     0  02:50      0.82    0.19    0.58
  HS02004901HS02004770 CONDUIT     12.85     0  02:13      0.05    0.05    0.35
  HS02004876HS02004881 CONDUIT     43.53     0  02:16      0.66    0.46    0.09
  HS02004870HS02004876 CONDUIT     34.62     0  02:17      0.46    0.02    0.11
  HS02004842HS02004848 CONDUIT      6.34     0  02:29      0.03    0.00    0.28
  HS02004837HS02004842 CONDUIT      6.57     0  02:29      0.42    0.00    0.30
  HS02004830HS02004837 CONDUIT     27.45     0  02:16      0.47    0.03    0.08
  HS02004824HS02004830 CONDUIT     27.60     0  02:17      0.51    0.04    0.08
  HS02004817HS02004824 CONDUIT     45.65     0  02:20      0.17    0.02    0.42
  HS02004770HS02004777 CONDUIT     65.39     0  02:13      0.26    0.12    0.36
  HS02004799HS02004480 CONDUIT    161.27     0  02:14      0.66    0.20    0.35
  HS02004792HS02004799 CONDUIT    147.42     0  02:14      0.76    0.09    0.28
  HS02004788HS02004792 CONDUIT     85.74     0  02:15      0.90    0.06    0.14
  HS02004785HS02004788 CONDUIT     64.99     0  02:15      0.57    0.49    0.16
  HS02004777HS02004785 CONDUIT     64.93     0  02:14      0.31    0.08    0.29
  HS02004480HS02004478 CONDUIT    190.47     0  02:15      1.05    0.80    0.26
  HS02004479HS02004480 CONDUIT     29.84     0  02:17      0.15    0.03    0.34
  HS02004862HS02004870 CONDUIT     25.37     0  02:17      0.51    0.03    0.07
  HS02004848HS02004852 CONDUIT     10.50     0  02:16      0.34    0.01    0.04
  HS02004856HS02004862 CONDUIT     17.34     0  02:17      0.38    0.02    0.07
  HS02004852HS02004856 CONDUIT     10.46     0  02:18      0.15    0.01    0.10
  HS02004802HS02004478 CONDUIT     64.13     0  02:20      0.33    0.06    0.28
  HS02004478WS02006287 CONDUIT    252.56     0  02:16      1.43    0.07    0.20
  HS02004817HS02004807 CONDUIT     46.98     0  02:21      0.13    0.03    0.54
  HS02004807HS02004802 CONDUIT     63.61     0  02:19      0.28    0.12    0.33
  YS02001759YS02001757 CONDUIT    248.24     0  02:52      0.32    0.18    1.00
  YS02001762YS02001759 CONDUIT    133.47     0  03:06      0.18    0.15    1.00
  YS02001765YS02001762 CONDUIT    133.33     0  03:07      0.23    0.13    1.00
  YS02001770YS02001767 CONDUIT    131.74     0  03:07      0.33    0.52    1.00
  YS02001774YS02001770 CONDUIT     50.35     0  02:13      0.14    0.03    1.00
  YS02001779YS02001774 CONDUIT     32.64     0  03:07      0.09    0.02    1.00
  YS02001649YS02001757 CONDUIT    380.31     0  02:53      0.48    0.23    1.00
  YS02001767YS02001765 CONDUIT    144.41     0  02:33      0.26    0.18    1.00
  YS02006561YS02001783 CONDUIT    406.82     0  02:52      1.91    0.21    0.44
  YS02001783YS02001784 CONDUIT    406.81     0  02:52      1.34    0.56    0.58
  YS02001784YS02001785 CONDUIT    407.84     0  02:52      1.44    0.95    0.55
  YS02001788YS02001790 CONDUIT    407.91     0  02:52      2.00    0.30    0.43
  YS02001790YS02001791 CONDUIT    407.92     0  02:53      2.37    0.44    0.44
  YS02001791YS02001793 CONDUIT    642.82     0  02:29      4.35    0.28    0.69
  YS02001910YS02001907 CONDUIT    129.05     0  02:57      0.49    0.07    0.80
  YS02001786YS02001788 CONDUIT    407.83     0  02:53      1.89    0.79    0.44
  YS02001915YS02001910 CONDUIT    127.86     0  03:02      0.44    0.06    0.59
  YS02001918YS02001915 CONDUIT     44.23     0  03:02      0.44    0.02    0.31
  YS02001923YS02001920 CONDUIT     39.79     0  03:01      0.50    0.02    0.16
  YS02001926YS02001923 CONDUIT     39.76     0  03:01      0.54    0.06    0.15
  YS02001929YS02001926 CONDUIT     39.78     0  03:01      0.58    0.02    0.14
  YS02001920YS02001918 CONDUIT     42.96     0  03:02      0.50    0.04    0.18
  YS02001629YS02163301 CONDUIT     93.04     0  02:52      0.12    0.11    1.00
  YS02001619YS02001622 CONDUIT    122.56     0  03:19      0.70    0.18    1.00
  YS02001622YS02001625 CONDUIT    171.98     0  03:16      0.28    0.09    1.00
  YS02001625YS02001629 CONDUIT    170.17     0  03:15      0.27    0.08    1.00
  YS02163301YS02001633 CONDUIT     92.73     0  03:37      0.12    0.09    1.00
  YS02163601YS02164001 CONDUIT    176.16     0  02:52      0.22    0.16    1.00
  YS02164001YS02001641 CONDUIT    176.70     0  02:54      0.22    0.24    1.00
  YS02001641YS02001644 CONDUIT    176.69     0  02:54      0.22    0.57    1.00
  YS02001647YS02001649 CONDUIT    292.98     0  02:44      0.37    0.15    1.00
  YS02006553YS02006556 CONDUIT    278.64     0  02:57      0.38    0.24    0.88
  YS02006556YS02006558 CONDUIT    279.09     0  02:57      0.37    0.22    0.91
  YSB6556YSB1171       CONDUIT     16.15     0  02:17      0.07    0.02    0.61
  YS02001907YS02006553 CONDUIT    279.14     0  02:57      0.31    0.33    0.99
  YS02006558YS02006561 CONDUIT    424.42     0  02:51      2.57    0.94    0.57
  YS02001633YS02163601 CONDUIT    176.89     0  02:52      0.23    0.19    1.00
  YS02001644YS02001647 CONDUIT    281.18     0  04:41      0.36    0.17    1.00
  YS02001745YS02001748 CONDUIT    188.94     0  03:11      1.48    0.07    0.93
  YS02001748YS02001751 CONDUIT    194.55     0  03:10      1.15    0.10    1.00
  YS02001751YS02001754 CONDUIT    139.45     0  03:15      1.01    0.07    1.00
  YS02001754YS02001757 CONDUIT    138.94     0  03:15      0.33    0.06    1.00
  YS02001882YS02001884 CONDUIT      4.83     0  02:06      0.06    0.01    0.53
  YS02001884YS02001887 CONDUIT     13.80     0  02:05      0.06    0.02    0.62
  YS02001890YS02001895 CONDUIT    152.41     0  02:41      0.32    0.07    0.59
  YS02001895YS02001898 CONDUIT    152.14     0  02:40      0.50    0.26    0.45
  YS02001898YS02001901 CONDUIT    152.22     0  02:51      0.36    0.10    0.53
  YS02001901YS02001904 CONDUIT    152.46     0  02:51      0.32    0.24    0.58
  YS02001904YS02001907 CONDUIT    152.90     0  02:51      0.24    0.05    0.74
  YS02001887YS02001890 CONDUIT    153.05     0  02:41      0.28    0.26    0.68
  YS02001652YS02001649 CONDUIT    150.25     0  02:48      0.35    0.07    1.00
  YS02001655YS02001652 CONDUIT    172.54     0  02:50      1.08    0.08    1.00
  YS02001658YS02001655 CONDUIT    312.79     0  03:15      1.33    0.13    1.00
  YS02001661YS02001658 CONDUIT    299.92     0  03:41      1.54    0.12    0.97
  YS02001664YS02001661 CONDUIT    186.13     0  04:27      1.24    0.06    0.70
  YSB1154YSB6556       CONDUIT     15.85     0  02:16      0.19    0.03    0.50
  YSB1174YSB1171       CONDUIT     14.63     0  02:10      0.06    0.02    0.61
  YSB1171HS02004479    CONDUIT     29.57     0  02:16      0.54    0.02    0.48
  HS02004881HS02006253 CONDUIT     48.66     0  02:16      1.81    0.01    0.04
  YS02001793JiankangQianchi CONDUIT   1224.76     0  02:28      1.95    0.10    1.00
  YS02001757CaochengTiaoxuchi CONDUIT    684.23     0  02:54      1.30    0.30    1.00
  WSF200WS02003060     CONDUIT    385.17     0  02:37      1.46    0.09    0.28
  1                    CONDUIT    693.46     0  02:42      3.01    0.24    0.33
  2                    CONDUIT      0.00     0  00:00      0.00    0.00    0.00
  3                    CONDUIT    565.95     0  02:33     10.26    0.90    0.84
  4                    CONDUIT      0.00     0  00:00      0.00    0.00    0.00
  CC-Pump-1            PUMP         0.00     0  00:00              0.00
  CC-Pump-2            PUMP         0.00     0  00:00              0.00
  JK-Pump-1            PUMP       300.00     0  02:19              1.00
  JK-Pump-2            PUMP       300.00     0  02:32              1.00
  XR-Pump-1            PUMP        95.00     0  00:00              1.00
  XR-Pump-2            PUMP        95.00     0  00:25              1.00
  XR-Pump-3            PUMP        95.00     0  02:04              1.00
  XR-Pump-4            PUMP         0.00     0  00:00              0.00
  
  
  ***************************
  Flow Classification Summary
  ***************************
  
  -------------------------------------------------------------------------------------
                      Adjusted    ---------- Fraction of Time in Flow Class ---------- 
                       /Actual         Up    Down  Sub   Sup   Up    Down  Norm  Inlet 
  Conduit               Length    Dry  Dry   Dry   Crit  Crit  Crit  Crit  Ltd   Ctrl  
  -------------------------------------------------------------------------------------
  WS02003066WSF200        1.00   0.10  0.00  0.00  0.00  0.90  0.00  0.00  0.69  0.00
  WS02006287WS02006284    1.00   0.03  0.02  0.00  0.56  0.39  0.00  0.00  0.77  0.00
  WS02006284WS02006280    1.00   0.04  0.00  0.00  0.00  0.00  0.00  0.96  0.00  0.00
  WS02006280WS02006229    1.00   0.04  0.00  0.00  0.00  0.00  0.00  0.96  0.00  0.00
  WS02006229WS02006228    1.00   0.00  0.00  0.00  1.00  0.00  0.00  0.00  0.00  0.00
  WS02006256WS02006235    1.00   0.06  0.00  0.00  0.90  0.04  0.00  0.00  0.04  0.00
  WS02006253WS02006251    1.00   0.01  0.02  0.00  0.96  0.00  0.00  0.00  0.00  0.00
  WS02006252WS02006251    1.00   1.00  0.00  0.00  0.00  0.00  0.00  0.00  0.00  0.00
  WS02006251WS02006249    1.00   0.00  0.00  0.00  1.00  0.00  0.00  0.00  0.92  0.00
  WS02006249WS02006248    1.00   0.00  0.01  0.00  0.07  0.00  0.92  0.00  0.00  0.00
  WS02006248WS02006247    1.00   0.01  0.00  0.00  0.98  0.00  0.00  0.02  0.85  0.00
  WS02006247WS02006245    1.00   0.01  0.00  0.00  0.97  0.00  0.00  0.03  0.00  0.00
  WS02006245WS02006243    1.00   0.01  0.00  0.00  0.91  0.00  0.00  0.08  0.08  0.00
  WS02006243WS02006242    1.00   0.01  0.00  0.00  0.95  0.00  0.00  0.04  0.41  0.00
  WS02006242WS02006240    1.00   0.01  0.04  0.00  0.94  0.00  0.01  0.00  0.01  0.00
  WS02006240WS02006239    1.00   0.05  0.00  0.00  0.89  0.00  0.00  0.06  0.08  0.00
  WS02006239WS02006238    1.00   0.05  0.00  0.00  0.94  0.00  0.00  0.01  0.00  0.00
  WS02006238WS02006235    1.00   0.05  0.01  0.00  0.94  0.00  0.00  0.00  0.00  0.00
  WS02006235WS02006234    1.00   0.07  0.00  0.00  0.89  0.00  0.04  0.00  0.00  0.00
  WS02006234WS02006232    1.00   0.07  0.00  0.00  0.93  0.00  0.00  0.00  0.01  0.00
  WS02006232WS02006231    1.00   0.07  0.01  0.00  0.91  0.00  0.00  0.00  0.00  0.00
  WS02006231WS02006230    1.00   0.08  0.00  0.00  0.21  0.00  0.71  0.00  0.00  0.00
  WS02006230WS02006229    1.00   0.00  0.00  0.00  0.99  0.00  0.00  0.01  0.01  0.00
  WS02006228WS02006109    1.00   0.00  0.00  0.00  1.00  0.00  0.00  0.00  0.00  0.00
  WS02006116WS02004401    1.00   0.03  0.00  0.00  0.97  0.00  0.00  0.00  0.01  0.00
  WS02006115WS02006116    1.00   0.03  0.00  0.00  0.94  0.00  0.00  0.03  0.00  0.00
  WS02006113WS02006111    1.00   0.02  0.00  0.00  0.01  0.97  0.00  0.00  0.12  0.00
  WS02006112WS02006115    1.00   0.02  0.01  0.00  0.97  0.00  0.00  0.00  0.00  0.00
  WS02006111WS02006112    1.00   0.02  0.00  0.00  0.98  0.00  0.00  0.00  0.92  0.00
  WS02006110WS02006113    1.00   0.00  0.01  0.00  0.98  0.00  0.00  0.00  0.00  0.00
  WS02006109WS02006110    1.00   0.00  0.00  0.00  0.99  0.00  0.00  0.00  0.00  0.00
  WS02004411WS02004412    1.00   0.08  0.00  0.00  0.92  0.00  0.00  0.00  0.00  0.00
  WS02004401WS02004402    1.00   0.03  0.00  0.00  0.97  0.00  0.00  0.00  0.04  0.00
  WS02004413WS02003067    1.00   0.09  0.01  0.00  0.00  0.00  0.90  0.00  0.00  0.00
  WS02004412WS02004413    1.00   0.09  0.00  0.00  0.91  0.00  0.00  0.00  0.00  0.00
  WS02004410WS02004411    1.00   0.08  0.00  0.00  0.92  0.00  0.00  0.00  0.00  0.00
  WS02004409WS02004410    1.00   0.08  0.00  0.00  0.92  0.00  0.00  0.00  0.00  0.00
  WS02004407WS02004409    1.00   0.08  0.00  0.00  0.91  0.01  0.00  0.00  0.72  0.00
  WS02004406WS02004407    1.00   0.00  0.08  0.00  0.92  0.00  0.00  0.00  0.00  0.00
  WS02004405WS02004406    1.00   0.00  0.00  0.00  1.00  0.00  0.00  0.00  0.04  0.00
  WS02004404WS02004405    1.00   0.00  0.00  0.00  1.00  0.00  0.00  0.00  0.02  0.00
  WS02004403WS02004404    1.00   0.00  0.03  0.00  0.97  0.00  0.00  0.00  0.04  0.00
  WS02004402WS02004403    1.00   0.03  0.00  0.00  0.97  0.00  0.00  0.00  0.00  0.00
  WS02004139WS02001211    1.00   0.00  0.00  0.00  1.00  0.00  0.00  0.00  0.00  0.00
  WS02004138WS02004139    1.00   0.00  0.00  0.00  1.00  0.00  0.00  0.00  1.00  0.00
  WS02003067WS02003066    1.00   0.10  0.00  0.00  0.90  0.00  0.00  0.00  0.00  0.00
  WS02001213WS02003059    1.00   0.00  0.00  0.00  1.00  0.00  0.00  0.00  0.00  0.00
  WS02001212WS02001213    1.00   0.00  0.00  0.00  0.45  0.00  0.55  0.00  0.00  0.00
  WS02001211WS02001212    1.00   0.00  0.00  0.00  1.00  0.00  0.00  0.00  0.00  0.00
  WS02003072WS02003073    1.00   0.00  0.00  0.00  0.00  0.00  0.00  1.00  0.00  0.00
  WS02003069WS02003072    1.00   0.00  0.00  0.00  1.00  0.00  0.00  0.00  0.47  0.00
  WS02003060WS02003069    1.00   0.00  0.00  0.00  0.99  0.01  0.00  0.00  0.30  0.00
  WS02003059WS02003060    1.00   0.00  0.00  0.00  1.00  0.00  0.00  0.00  0.02  0.00
  HS02004901HS02004770    1.00   0.04  0.00  0.00  0.96  0.00  0.00  0.00  0.02  0.00
  HS02004876HS02004881    1.00   0.01  0.00  0.00  0.99  0.00  0.00  0.00  0.00  0.00
  HS02004870HS02004876    1.00   0.00  0.00  0.00  1.00  0.00  0.00  0.00  0.95  0.00
  HS02004842HS02004848    1.00   0.00  0.04  0.00  0.96  0.00  0.00  0.00  0.68  0.00
  HS02004837HS02004842    1.00   0.00  0.00  0.00  1.00  0.00  0.00  0.00  0.11  0.00
  HS02004830HS02004837    1.00   0.00  0.00  0.00  1.00  0.00  0.00  0.00  0.99  0.00
  HS02004824HS02004830    1.00   0.00  0.00  0.00  1.00  0.00  0.00  0.00  0.00  0.00
  HS02004817HS02004824    1.00   0.00  0.00  0.00  1.00  0.00  0.00  0.00  1.00  0.00
  HS02004770HS02004777    1.00   0.00  0.04  0.00  0.96  0.00  0.00  0.00  0.07  0.00
  HS02004799HS02004480    1.00   0.00  0.01  0.00  0.94  0.00  0.05  0.00  0.00  0.00
  HS02004792HS02004799    1.00   0.00  0.00  0.00  1.00  0.00  0.00  0.00  0.98  0.00
  HS02004788HS02004792    1.00   0.00  0.00  0.00  1.00  0.00  0.00  0.00  0.98  0.00
  HS02004785HS02004788    1.00   0.00  0.00  0.00  1.00  0.00  0.00  0.00  0.00  0.00
  HS02004777HS02004785    1.00   0.00  0.00  0.00  1.00  0.00  0.00  0.00  0.20  0.00
  HS02004480HS02004478    1.00   0.04  0.00  0.00  0.63  0.00  0.00  0.33  0.00  0.00
  HS02004479HS02004480    1.00   0.01  0.00  0.00  0.99  0.00  0.00  0.00  0.16  0.00
  HS02004862HS02004870    1.00   0.00  0.00  0.00  1.00  0.00  0.00  0.00  0.06  0.00
  HS02004848HS02004852    1.00   0.04  0.00  0.00  0.96  0.00  0.00  0.00  0.71  0.00
  HS02004856HS02004862    1.00   0.00  0.07  0.00  0.93  0.00  0.00  0.00  0.74  0.00
  HS02004852HS02004856    1.00   0.04  0.01  0.00  0.95  0.00  0.00  0.00  0.83  0.00
  HS02004802HS02004478    1.00   0.04  0.01  0.00  0.95  0.00  0.00  0.00  0.01  0.00
  HS02004478WS02006287    1.00   0.05  0.00  0.00  0.82  0.13  0.00  0.00  0.75  0.00
  HS02004817HS02004807    1.00   0.00  0.04  0.00  0.96  0.00  0.00  0.00  0.00  0.00
  HS02004807HS02004802    1.00   0.04  0.00  0.00  0.96  0.00  0.00  0.00  0.01  0.00
  YS02001759YS02001757    1.00   0.00  0.00  0.00  1.00  0.00  0.00  0.00  0.17  0.00
  YS02001762YS02001759    1.00   0.00  0.00  0.00  1.00  0.00  0.00  0.00  0.04  0.00
  YS02001765YS02001762    1.00   0.00  0.00  0.00  1.00  0.00  0.00  0.00  0.22  0.00
  YS02001770YS02001767    1.00   0.00  0.00  0.00  1.00  0.00  0.00  0.00  0.00  0.00
  YS02001774YS02001770    1.00   0.00  0.05  0.00  0.95  0.00  0.00  0.00  0.06  0.00
  YS02001779YS02001774    1.00   0.00  0.00  0.00  1.00  0.00  0.00  0.00  0.26  0.00
  YS02001649YS02001757    1.00   0.00  0.00  0.00  1.00  0.00  0.00  0.00  0.19  0.00
  YS02001767YS02001765    1.00   0.00  0.00  0.00  1.00  0.00  0.00  0.00  0.01  0.00
  YS02006561YS02001783    1.00   0.08  0.00  0.00  0.00  0.92  0.00  0.00  0.64  0.00
  YS02001783YS02001784    1.00   0.00  0.08  0.00  0.92  0.00  0.00  0.00  0.00  0.00
  YS02001784YS02001785    1.00   0.00  0.00  0.00  1.00  0.00  0.00  0.00  0.25  0.00
  YS02001788YS02001790    1.00   0.00  0.00  0.00  0.08  0.92  0.00  0.00  0.72  0.00
  YS02001790YS02001791    1.00   0.00  0.00  0.00  0.00  1.00  0.00  0.00  0.61  0.00
  YS02001791YS02001793    1.00   0.00  0.00  0.00  0.40  0.60  0.00  0.00  0.35  0.00
  YS02001910YS02001907    1.00   0.00  0.00  0.00  0.99  0.00  0.00  0.01  0.13  0.00
  YS02001786YS02001788    1.00   0.00  0.00  0.00  0.08  0.92  0.00  0.00  0.00  0.00
  YS02001915YS02001910    1.00   0.00  0.00  0.00  1.00  0.00  0.00  0.00  0.24  0.00
  YS02001918YS02001915    1.00   0.00  0.00  0.00  0.99  0.00  0.00  0.00  0.72  0.00
  YS02001923YS02001920    1.00   0.00  0.00  0.00  1.00  0.00  0.00  0.00  1.00  0.00
  YS02001926YS02001923    1.00   0.00  0.02  0.00  0.00  0.00  0.98  0.00  0.00  0.00
  YS02001929YS02001926    1.00   0.00  0.04  0.00  0.96  0.00  0.00  0.00  0.87  0.00
  YS02001920YS02001918    1.00   0.00  0.00  0.00  1.00  0.00  0.00  0.00  0.00  0.00
  YS02001629YS02163301    1.00   0.06  0.01  0.00  0.93  0.00  0.00  0.00  0.00  0.00
  YS02001619YS02001622    1.00   0.04  0.00  0.00  0.96  0.00  0.00  0.00  0.00  0.00
  YS02001622YS02001625    1.00   0.04  0.00  0.00  0.96  0.00  0.00  0.00  0.12  0.00
  YS02001625YS02001629    1.00   0.04  0.04  0.00  0.91  0.00  0.02  0.00  0.00  0.00
  YS02163301YS02001633    1.00   0.00  0.06  0.00  0.94  0.00  0.00  0.00  0.00  0.00
  YS02163601YS02164001    1.00   0.00  0.02  0.00  0.98  0.00  0.00  0.00  0.00  0.00
  YS02164001YS02001641    1.00   0.00  0.02  0.00  0.98  0.00  0.00  0.00  0.07  0.00
  YS02001641YS02001644    1.00   0.00  0.00  0.00  1.00  0.00  0.00  0.00  0.00  0.00
  YS02001647YS02001649    1.00   0.00  0.07  0.00  0.92  0.00  0.00  0.00  0.01  0.00
  YS02006553YS02006556    1.00   0.00  0.00  0.00  1.00  0.00  0.00  0.00  0.03  0.00
  YS02006556YS02006558    1.00   0.00  0.00  0.00  1.00  0.00  0.00  0.00  0.00  0.00
  YSB6556YSB1171          1.00   0.01  0.02  0.00  0.96  0.00  0.00  0.00  0.00  0.00
  YS02001907YS02006553    1.00   0.00  0.01  0.00  0.99  0.00  0.00  0.00  0.00  0.00
  YS02006558YS02006561    1.00   0.08  0.00  0.00  0.00  0.92  0.00  0.00  0.65  0.00
  YS02001633YS02163601    1.00   0.00  0.00  0.00  1.00  0.00  0.00  0.00  0.20  0.00
  YS02001644YS02001647    1.00   0.00  0.07  0.00  0.93  0.00  0.00  0.00  0.00  0.00
  YS02001745YS02001748    1.00   0.00  0.00  0.00  0.86  0.02  0.00  0.12  0.08  0.00
  YS02001748YS02001751    1.00   0.00  0.00  0.00  0.97  0.03  0.00  0.00  0.23  0.00
  YS02001751YS02001754    1.00   0.00  0.00  0.00  0.92  0.00  0.00  0.08  0.01  0.00
  YS02001754YS02001757    1.00   0.00  0.00  0.00  1.00  0.00  0.00  0.00  0.26  0.00
  YS02001882YS02001884    1.00   0.06  0.01  0.00  0.94  0.00  0.00  0.00  0.00  0.00
  YS02001884YS02001887    1.00   0.02  0.02  0.00  0.97  0.00  0.00  0.00  0.00  0.00
  YS02001890YS02001895    1.00   0.00  0.07  0.00  0.93  0.00  0.00  0.00  0.00  0.00
  YS02001895YS02001898    1.00   0.07  0.00  0.00  0.92  0.00  0.01  0.00  0.00  0.00
  YS02001898YS02001901    1.00   0.06  0.01  0.00  0.93  0.00  0.00  0.00  0.02  0.00
  YS02001901YS02001904    1.00   0.06  0.00  0.00  0.94  0.00  0.00  0.00  0.00  0.00
  YS02001904YS02001907    1.00   0.00  0.06  0.00  0.94  0.00  0.00  0.00  0.00  0.00
  YS02001887YS02001890    1.00   0.00  0.00  0.00  0.99  0.00  0.01  0.00  0.00  0.00
  YS02001652YS02001649    1.00   0.00  0.00  0.00  1.00  0.00  0.00  0.00  0.25  0.00
  YS02001655YS02001652    1.00   0.00  0.00  0.00  0.92  0.00  0.00  0.08  0.02  0.00
  YS02001658YS02001655    1.00   0.00  0.05  0.00  0.91  0.04  0.00  0.00  0.09  0.00
  YS02001661YS02001658    1.00   0.05  0.00  0.00  0.85  0.09  0.00  0.00  0.10  0.00
  YS02001664YS02001661    1.00   0.04  0.00  0.00  0.76  0.21  0.00  0.00  0.34  0.00
  YSB1154YSB6556          1.00   0.04  0.00  0.00  0.96  0.00  0.00  0.00  0.02  0.00
  YSB1174YSB1171          1.00   0.01  0.01  0.00  0.97  0.00  0.00  0.00  0.00  0.00
  YSB1171HS02004479       1.00   0.01  0.00  0.00  0.98  0.00  0.00  0.00  0.13  0.00
  HS02004881HS02006253    1.00   0.02  0.00  0.00  0.00  0.00  0.00  0.98  0.00  0.00
  YS02001793JiankangQianchi    1.00   0.00  0.00  0.00  1.00  0.00  0.00  0.00  0.61  0.00
  YS02001757CaochengTiaoxuchi    1.00   0.00  0.09  0.00  0.91  0.00  0.00  0.00  0.00  0.00
  WSF200WS02003060        1.00   0.00  0.10  0.00  0.90  0.00  0.00  0.00  0.64  0.00
  1                       1.00   0.00  0.00  0.00  0.00  1.00  0.00  0.00  0.33  0.00
  2                       1.00   1.00  0.00  0.00  0.00  0.00  0.00  0.00  0.00  0.00
  3                       1.00   0.21  0.00  0.00  0.00  0.79  0.00  0.00  0.02  0.00
  4                       1.00   1.00  0.00  0.00  0.00  0.00  0.00  0.00  0.00  0.00
  
  
  *************************
  Conduit Surcharge Summary
  *************************
  
  ----------------------------------------------------------------------------
                                                           Hours        Hours 
                         --------- Hours Full --------   Above Full   Capacity
  Conduit                Both Ends  Upstream  Dnstream   Normal Flow   Limited
  ----------------------------------------------------------------------------
  WS02006229WS02006228        0.01      0.01      0.01      0.56         0.01
  WS02006256WS02006235        2.87      2.89      5.59      3.16         0.01
  WS02006235WS02006234        0.01      0.01      0.01      2.94         0.01
  WS02006231WS02006230        0.01      0.01      0.01      3.22         0.01
  WS02006230WS02006229        0.28      0.34      0.28      4.30         0.28
  WS02006228WS02006109        0.01      0.18      0.01      1.04         0.01
  WS02006111WS02006112        0.01      0.01      0.69      0.01         0.01
  WS02006110WS02006113        0.01      0.01      0.08      0.01         0.01
  WS02006109WS02006110        0.01      0.01      0.18      0.01         0.01
  WS02004404WS02004405        0.01      0.01      0.01      2.97         0.01
  WS02003072WS02003073        0.01      0.01      0.01      1.91         0.01
  YS02001759YS02001757        5.34      5.34      5.43      0.01         0.01
  YS02001762YS02001759        5.31      5.31      5.34      0.01         0.01
  YS02001765YS02001762        5.27      5.27      5.31      0.01         0.01
  YS02001770YS02001767        5.23      5.23      5.23      0.01         0.35
  YS02001774YS02001770        5.19      5.19      5.30      0.01         0.01
  YS02001779YS02001774        4.67      4.67      5.30      0.01         0.01
  YS02001649YS02001757        5.32      5.32      5.43      0.01         0.01
  YS02001767YS02001765        5.23      5.23      5.27      0.01         0.01
  YS02001791YS02001793        0.01      0.01      0.18      0.01         0.01
  YS02001629YS02163301        5.16      5.16      5.21      0.01         0.01
  YS02001619YS02001622        4.26      4.26      4.32      0.01         0.01
  YS02001622YS02001625        4.32      4.32      5.02      0.01         0.01
  YS02001625YS02001629        4.28      4.28      5.02      0.01         0.01
  YS02163301YS02001633        5.21      5.21      5.27      0.01         0.01
  YS02163601YS02164001        5.27      5.27      5.32      0.01         0.01
  YS02164001YS02001641        5.27      5.27      5.29      0.01         0.01
  YS02001641YS02001644        5.29      5.29      5.29      0.01         0.40
  YS02001647YS02001649        4.95      4.95      5.32      0.01         0.01
  YS02001907YS02006553        0.01      0.01      0.52      0.01         0.01
  YS02001633YS02163601        5.26      5.26      5.32      0.01         0.01
  YS02001644YS02001647        4.95      4.95      5.29      0.01         0.01
  YS02001745YS02001748        0.01      0.01      3.86      0.01         0.01
  YS02001748YS02001751        4.02      4.02      4.35      0.01         0.01
  YS02001751YS02001754        4.35      4.35      4.77      0.01         0.01
  YS02001754YS02001757        4.93      4.93      5.43      0.01         0.01
  YS02001652YS02001649        5.00      5.00      5.32      0.01         0.01
  YS02001655YS02001652        4.40      4.40      4.89      0.01         0.01
  YS02001658YS02001655        3.88      3.88      4.40      0.01         0.01
  YS02001661YS02001658        0.01      0.01      3.88      0.01         0.01
  YS02001664YS02001661        0.01      0.01      0.01      0.01         0.01
  YS02001793JiankangQianchi        0.01      0.01      7.82      0.01         0.01
  YS02001757CaochengTiaoxuchi        4.10      4.10      5.43      0.01         0.01
  3                           0.01      0.01      0.01      0.01         0.01
  
  
  ***************
  Pumping Summary
  ***************
  
  ---------------------------------------------------------------------------------------------------------
                                                  Min       Avg       Max     Total     Power    % Time Off
                        Percent   Number of      Flow      Flow      Flow    Volume     Usage    Pump Curve
  Pump                 Utilized   Start-Ups       LPS       LPS       LPS  10^6 ltr     Kw-hr    Low   High
  ---------------------------------------------------------------------------------------------------------
  CC-Pump-1                0.00           0      0.00      0.00      0.00     0.000      0.00    0.0    0.0
  CC-Pump-2                0.00           0      0.00      0.00      0.00     0.000      0.00    0.0    0.0
  JK-Pump-1               40.53          11      0.00    300.00    300.00     3.429     27.69    0.0    0.0
  JK-Pump-2                3.41           9      0.00    300.00    300.00     0.288      2.06    0.0    0.0
  XR-Pump-1              100.00           1      0.00     95.00     95.00     2.679     17.50    0.0    0.0
  XR-Pump-2               94.70           1      0.00     95.00     95.00     2.537     16.08    0.0    0.0
  XR-Pump-3               61.30           2      0.00     95.00     95.00     1.642      9.30    0.0    0.0
  XR-Pump-4                0.00           0      0.00      0.00      0.00     0.000      0.00    0.0    0.0
  

  Analysis begun on:  Thu Jan  6 00:19:55 2022
  Analysis ended on:  Thu Jan  6 00:19:56 2022
  Total elapsed time: 00:00:01