
  EPA STORM WATER MANAGEMENT MODEL - VERSION 5.1 (Build 5.3.0.dev0)
  --------------------------------------------------------------

  WARNING 04: minimum elevation drop used for Conduit WS02004404WS02004405
  WARNING 03: negative offset ignored for Link YS02001904YS02001907
  
  *********************************************************
  NOTE: The summary statistics displayed in this report are
  based on results found at every computational time step,  
  not just on results from each reporting time step.
  *********************************************************
  
  ****************
  Analysis Options
  ****************
  Flow Units ............... LPS
  Process Models:
    Rainfall/Runoff ........ YES
    RDII ................... NO
    Snowmelt ............... NO
    Groundwater ............ NO
    Flow Routing ........... YES
    Ponding Allowed ........ NO
    Water Quality .......... NO
  Infiltration Method ...... HORTON
  Flow Routing Method ...... DYNWAVE
  Surcharge Method ......... EXTRAN
  Starting Date ............ 08/28/2015 08:00:00
  Ending Date .............. 08/28/2015 15:50:00
  Antecedent Dry Days ...... 8.0
  Report Time Step ......... 00:01:00
  Wet Time Step ............ 00:01:00
  Dry Time Step ............ 00:01:00
  Routing Time Step ........ 5.00 sec
  Variable Time Step ....... YES
  Maximum Trials ........... 8
  Number of Threads ........ 4
  Head Tolerance ........... 0.001500 m
  
  
  **************************        Volume         Depth
  Runoff Quantity Continuity     hectare-m            mm
  **************************     ---------       -------
  Total Precipitation ......         1.967         4.306
  Evaporation Loss .........         0.000         0.000
  Infiltration Loss ........         0.486         1.064
  Surface Runoff ...........         0.673         1.473
  Final Storage ............         0.809         1.770
  Continuity Error (%) .....        -0.017
  
  
  **************************        Volume        Volume
  Flow Routing Continuity        hectare-m      10^6 ltr
  **************************     ---------     ---------
  Dry Weather Inflow .......         0.616         6.165
  Wet Weather Inflow .......         0.672         6.722
  Groundwater Inflow .......         0.000         0.000
  RDII Inflow ..............         0.000         0.000
  External Inflow ..........         0.102         1.024
  External Outflow .........         0.947         9.468
  Flooding Loss ............         0.000         0.000
  Evaporation Loss .........         0.000         0.000
  Exfiltration Loss ........         0.000         0.000
  Initial Stored Volume ....         0.076         0.761
  Final Stored Volume ......         0.515         5.153
  Continuity Error (%) .....         0.339
  
  
  *************************
  Highest Continuity Errors
  *************************
  Node HS02004842 (36.00%)
  Node YS02001884 (30.31%)
  Node YS02001774 (28.05%)
  Node YS02001625 (10.62%)
  Node YSB1171 (10.21%)
  
  
  ***************************
  Time-Step Critical Elements
  ***************************
  Link 3 (59.78%)
  Link WS02006280WS02006229 (24.44%)
  Link WS02006238WS02006235 (4.98%)
  Link YS02001649YS02001757 (1.02%)
  
  
  ********************************
  Highest Flow Instability Indexes
  ********************************
  Link WS02006113WS02006111 (22)
  Link YS02001629YS02163301 (6)
  Link YS02163601YS02164001 (6)
  Link YS02163301YS02001633 (6)
  Link YS02001647YS02001649 (6)
  
  
  *************************
  Routing Time Step Summary
  *************************
  Minimum Time Step           :     0.55 sec
  Average Time Step           :     2.04 sec
  Maximum Time Step           :     5.00 sec
  Percent in Steady State     :    -0.00
  Average Iterations per Step :     2.18
  Percent Not Converging      :     1.00
  
  
  ***************************
  Subcatchment Runoff Summary
  ***************************
  
  ------------------------------------------------------------------------------------------------------------------------------
                            Total      Total      Total      Total     Imperv       Perv      Total       Total     Peak  Runoff
                           Precip      Runon       Evap      Infil     Runoff     Runoff     Runoff      Runoff   Runoff   Coeff
  Subcatchment                 mm         mm         mm         mm         mm         mm         mm    10^6 ltr      LPS
  ------------------------------------------------------------------------------------------------------------------------------
  sub0                       4.31       0.00       0.00       0.30       2.74       0.00       2.74        0.00     0.83   0.636
  sub1                       4.31       0.00       0.00       0.47       2.58       0.00       2.58        0.02     4.25   0.599
  sub2                       4.31       0.00       0.00       1.59       1.81       0.00       1.81        0.02     3.74   0.420
  sub3                       4.31       0.00       0.00       1.59       1.78       0.00       1.78        0.04     7.64   0.413
  sub4                       4.31       0.00       0.00       0.47       2.45       0.00       2.45        0.05     8.52   0.569
  sub5                       4.31       0.00       0.00       0.30       2.69       0.00       2.69        0.03     7.56   0.626
  sub7                       4.31       0.00       0.00       0.39       2.66       0.00       2.66        0.01     2.69   0.619
  sub8                       4.31       0.00       0.00       0.39       2.66       0.00       2.66        0.02     4.73   0.617
  sub9                       4.31       0.00       0.00       0.39       2.65       0.00       2.65        0.01     3.50   0.616
  sub10                      4.31       0.00       0.00       0.34       2.67       0.00       2.67        0.03     7.55   0.621
  sub11                      4.31       0.00       0.00       0.34       2.69       0.00       2.69        0.03     8.91   0.624
  sub12                      4.31       0.00       0.00       0.56       2.56       0.00       2.56        0.02     7.63   0.594
  sub14                      4.31       0.00       0.00       0.39       2.65       0.00       2.65        0.03     6.84   0.616
  sub15                      4.31       0.00       0.00       1.29       2.04       0.00       2.04        0.04     9.27   0.473
  sub16                      4.31       0.00       0.00       1.42       1.97       0.00       1.97        0.02     6.68   0.457
  sub17                      4.31       0.00       0.00       1.38       1.99       0.00       1.99        0.02     5.39   0.463
  sub22                      4.31       0.00       0.00       1.85       1.67       0.00       1.67        0.11    30.51   0.387
  sub23                      4.31       0.00       0.00       1.59       1.84       0.00       1.84        0.09    26.01   0.428
  sub60                      4.31       0.00       0.00       0.52       1.61       0.00       1.61        0.49    41.47   0.373
  sub61                      4.31       0.00       0.00       0.73       1.77       0.00       1.77        0.55    52.87   0.411
  sub62                      4.31       0.00       0.00       0.34       1.88       0.00       1.88        0.58    53.89   0.437
  sub63                      4.31       0.00       0.00       1.25       1.59       0.00       1.59        0.48    49.53   0.370
  sub64                      4.31       0.00       0.00       0.65       1.53       0.00       1.53        0.47    39.31   0.356
  sub65                      4.31       0.00       0.00       0.56       1.55       0.00       1.55        0.48    39.81   0.359
  sub66                      4.31       0.00       0.00       1.25       1.35       0.00       1.35        0.41    36.31   0.313
  sub67                      4.31       0.00       0.00       0.34       2.12       0.00       2.12        0.65    69.78   0.493
  sub68                      4.31       0.00       0.00       0.60       1.89       0.00       1.89        0.58    58.60   0.440
  sub69                      4.31       0.00       0.00       0.65       2.10       0.00       2.10        0.49    58.79   0.488
  sub70                      4.31       2.14       0.00       2.19       2.42       0.00       2.42        0.55    43.75   0.376
  sub71                      4.31       0.00       0.00       0.34       1.78       0.00       1.78        0.42    37.41   0.413
  sub72                      4.31       0.00       0.00       0.30       1.18       0.00       1.18        0.24    16.89   0.274
  sub73                      4.31       2.36       0.00       2.27       2.36       0.00       2.36        0.55    37.29   0.354
  sub74                      4.31       0.00       0.00       3.23       0.64       0.00       0.64        0.26    32.93   0.148
  
  
  ******************
  Node Depth Summary
  ******************
  
  ---------------------------------------------------------------------------------
                                 Average  Maximum  Maximum  Time of Max    Reported
                                   Depth    Depth      HGL   Occurrence   Max Depth
  Node                 Type       Meters   Meters   Meters  days hr:min      Meters
  ---------------------------------------------------------------------------------
  WS02001211           JUNCTION     0.65     0.69     5.53     0  02:54        0.69
  WS02001212           JUNCTION     0.37     0.40     5.47     0  02:53        0.40
  WS02001213           JUNCTION     0.56     0.63     5.39     0  02:51        0.63
  WS02003069           JUNCTION     0.33     0.42     5.00     0  02:50        0.42
  WS02003072           JUNCTION     0.40     0.49     4.86     0  02:51        0.49
  WS02003073           JUNCTION     0.23     0.29     4.36     0  02:52        0.29
  WS02003060           JUNCTION     0.30     0.38     5.31     0  02:49        0.38
  WS02003066           JUNCTION     0.14     0.21     5.77     0  02:48        0.21
  WS02003059           JUNCTION     0.62     0.68     5.37     0  02:51        0.68
  WS02003067           JUNCTION     0.37     0.54     5.86     0  02:48        0.54
  WS02004401           JUNCTION     0.43     0.61     6.61     0  02:44        0.61
  WS02004402           JUNCTION     0.46     0.65     6.61     0  02:45        0.65
  WS02004403           JUNCTION     0.49     0.67     6.60     0  02:45        0.67
  WS02004404           JUNCTION     0.57     0.75     6.60     0  02:45        0.75
  WS02004406           JUNCTION     0.58     0.77     6.60     0  02:45        0.77
  WS02004409           JUNCTION     0.24     0.42     6.19     0  02:46        0.42
  WS02004410           JUNCTION     0.27     0.44     6.16     0  02:47        0.44
  WS02004411           JUNCTION     0.29     0.46     6.14     0  02:47        0.46
  WS02004412           JUNCTION     0.32     0.49     6.13     0  02:48        0.49
  WS02004413           JUNCTION     0.46     0.66     6.13     0  02:48        0.66
  WS02004405           JUNCTION     0.57     0.75     6.60     0  02:45        0.75
  WS02006109           JUNCTION     0.48     0.69     7.31     0  02:42        0.69
  WS02006110           JUNCTION     0.51     0.70     7.28     0  02:42        0.70
  WS02006111           JUNCTION     0.11     0.20     6.91     0  02:43        0.20
  WS02006112           JUNCTION     0.57     0.77     6.65     0  02:43        0.77
  WS02006113           JUNCTION     0.17     0.30     7.20     0  02:43        0.30
  WS02006115           JUNCTION     0.31     0.49     6.63     0  02:44        0.49
  WS02006116           JUNCTION     0.40     0.58     6.62     0  02:44        0.58
  WS02006230           JUNCTION     0.38     0.60     7.35     0  02:42        0.60
  WS02006231           JUNCTION     0.20     0.35     7.47     0  03:02        0.35
  WS02006232           JUNCTION     0.30     0.47     7.51     0  03:02        0.47
  WS02006234           JUNCTION     0.21     0.37     7.52     0  02:41        0.37
  WS02006235           JUNCTION     0.24     0.40     7.56     0  02:41        0.39
  WS02006238           JUNCTION     0.26     0.42     7.56     0  02:41        0.41
  WS02006240           JUNCTION     0.13     0.27     7.56     0  02:42        0.27
  WS02006242           JUNCTION     0.16     0.29     7.56     0  02:41        0.29
  WS02006243           JUNCTION     0.06     0.15     7.57     0  02:42        0.15
  WS02006245           JUNCTION     0.06     0.13     7.61     0  02:27        0.13
  WS02006247           JUNCTION     0.06     0.15     7.65     0  02:26        0.15
  WS02006248           JUNCTION     0.04     0.11     7.69     0  02:26        0.11
  WS02006249           JUNCTION     0.07     0.15     7.75     0  02:25        0.15
  WS02006239           JUNCTION     0.20     0.35     7.56     0  02:41        0.35
  WS02006251           JUNCTION     0.05     0.12     7.79     0  02:24        0.12
  WS02006252           JUNCTION     0.00     0.00     8.24     0  00:00        0.00
  WS02006253           JUNCTION     0.09     0.18     7.82     0  02:23        0.18
  WS02006256           JUNCTION     0.77     1.16     8.09     0  02:31        1.11
  WS02004138           JUNCTION     0.15     0.17     7.42     0  07:43        0.17
  WS02004407           JUNCTION     0.11     0.20     6.51     0  02:46        0.20
  WS02006228           JUNCTION     0.46     0.67     7.33     0  02:42        0.67
  WS02006229           JUNCTION     0.42     0.64     7.33     0  02:42        0.64
  WS02006280           JUNCTION     0.05     0.11     8.38     0  02:24        0.11
  WS02006284           JUNCTION     0.34     0.44     8.83     0  02:24        0.44
  WS02006287           JUNCTION     0.07     0.16     9.12     0  02:24        0.16
  WSF200               JUNCTION     0.11     0.18     5.42     0  02:49        0.18
  HS02004901           JUNCTION     0.11     0.19    10.01     0  02:22        0.19
  HS02004881           JUNCTION     0.01     0.02     9.05     0  02:23        0.02
  HS02004876           JUNCTION     0.03     0.09     9.12     0  02:23        0.09
  HS02004870           JUNCTION     0.01     0.03     9.32     0  02:23        0.03
  HS02004862           JUNCTION     0.01     0.03     9.42     0  02:25        0.03
  HS02004856           JUNCTION     0.07     0.09     9.52     0  02:24        0.09
  HS02004852           JUNCTION     0.01     0.02     9.53     0  02:25        0.02
  HS02004848           JUNCTION     0.01     0.02     9.62     0  02:22        0.02
  HS02004842           JUNCTION     0.33     0.35     9.62     0  02:21        0.35
  HS02004837           JUNCTION     0.03     0.04     9.62     0  02:22        0.04
  HS02004830           JUNCTION     0.04     0.05     9.52     0  02:22        0.05
  HS02004824           JUNCTION     0.02     0.03     9.43     0  02:26        0.03
  HS02004817           JUNCTION     0.42     0.49     9.34     0  02:24        0.49
  HS02004807           JUNCTION     0.11     0.16     9.33     0  02:24        0.16
  HS02004802           JUNCTION     0.14     0.20     9.33     0  02:24        0.20
  HS02004799           JUNCTION     0.10     0.20     9.41     0  02:22        0.20
  HS02004792           JUNCTION     0.02     0.07     9.59     0  02:21        0.07
  HS02004788           JUNCTION     0.02     0.05     9.95     0  02:23        0.05
  HS02004785           JUNCTION     0.03     0.10    10.00     0  02:22        0.10
  HS02004777           JUNCTION     0.13     0.21    10.01     0  02:22        0.21
  HS02004770           JUNCTION     0.10     0.18    10.01     0  02:22        0.18
  HS02004480           JUNCTION     0.06     0.15     9.39     0  02:22        0.15
  HS02004479           JUNCTION     0.10     0.19     9.39     0  02:23        0.19
  HS02004478           JUNCTION     0.05     0.09     9.32     0  02:23        0.09
  YS02001745           JUNCTION     0.13     0.44     7.95     0  07:50        0.44
  YS02001748           JUNCTION     0.38     0.88     7.95     0  07:50        0.88
  YS02001751           JUNCTION     0.54     1.07     7.95     0  07:50        1.07
  YS02001754           JUNCTION     0.78     1.34     7.95     0  07:50        1.34
  YS02001762           JUNCTION     0.96     1.55     7.95     0  07:50        1.55
  YS02001765           JUNCTION     0.92     1.50     7.95     0  07:50        1.50
  YS02001767           JUNCTION     0.88     1.46     7.95     0  07:50        1.46
  YS02001770           JUNCTION     0.88     1.46     7.95     0  07:50        1.46
  YS02001774           JUNCTION     0.94     1.53     7.95     0  07:50        1.53
  YS02001779           JUNCTION     0.71     1.27     7.95     0  07:50        1.27
  YS02001882           JUNCTION     0.23     0.34     7.05     0  03:00        0.34
  YS02001884           JUNCTION     0.32     0.44     7.05     0  03:01        0.44
  YS02001759           JUNCTION     0.99     1.59     7.95     0  07:50        1.59
  YS02001887           JUNCTION     0.40     0.52     7.05     0  03:00        0.52
  YS02001890           JUNCTION     0.43     0.55     7.05     0  03:00        0.55
  YS02001898           JUNCTION     0.20     0.30     7.04     0  03:01        0.30
  YS02001901           JUNCTION     0.32     0.43     7.04     0  03:01        0.43
  YS02001904           JUNCTION     0.30     0.41     7.04     0  03:01        0.41
  YS02001907           JUNCTION     0.62     0.75     7.04     0  03:01        0.75
  YS02001910           JUNCTION     0.41     0.53     7.04     0  03:01        0.53
  YS02001915           JUNCTION     0.22     0.32     7.04     0  03:00        0.32
  YS02001918           JUNCTION     0.06     0.07     7.14     0  03:04        0.07
  YS02001619           JUNCTION     0.50     1.02     7.95     0  07:50        1.02
  YS02001629           JUNCTION     0.83     1.40     7.95     0  07:50        1.40
  YS02001641           JUNCTION     0.93     1.52     7.95     0  07:50        1.52
  YS02001644           JUNCTION     0.94     1.52     7.95     0  07:50        1.52
  YS02001652           JUNCTION     0.79     1.36     7.95     0  07:50        1.36
  YS02001655           JUNCTION     0.57     1.10     7.95     0  07:50        1.10
  YS02001920           JUNCTION     0.15     0.17     7.18     0  03:03        0.17
  YS02001923           JUNCTION     0.05     0.06     7.32     0  03:02        0.06
  YS02001926           JUNCTION     0.11     0.14     7.58     0  03:02        0.14
  YS02001929           JUNCTION     0.05     0.06     7.76     0  03:01        0.06
  YS02001658           JUNCTION     0.33     0.81     7.95     0  07:50        0.81
  YS02001661           JUNCTION     0.22     0.55     7.95     0  07:50        0.55
  YS02001664           JUNCTION     0.06     0.09     8.01     0  02:53        0.09
  YS02001622           JUNCTION     0.52     1.05     7.95     0  07:50        1.05
  YS02001633           JUNCTION     0.92     1.50     7.95     0  07:50        1.50
  YS02001649           JUNCTION     0.97     1.56     7.95     0  07:50        1.56
  YS02001757           JUNCTION     1.09     1.69     7.95     0  07:50        1.69
  YS02001895           JUNCTION     0.20     0.30     7.05     0  03:00        0.30
  YS02001625           JUNCTION     0.79     1.35     7.95     0  07:50        1.35
  YS02163301           JUNCTION     0.86     1.44     7.95     0  07:50        1.44
  YS02163601           JUNCTION     0.97     1.56     7.95     0  07:50        1.56
  YS02164001           JUNCTION     0.91     1.50     7.95     0  07:50        1.50
  YS02001647           JUNCTION     0.77     1.34     7.95     0  07:50        1.34
  YSB1154              JUNCTION     0.23     0.33     9.39     0  02:22        0.33
  YSB6556              JUNCTION     0.13     0.22     9.39     0  02:23        0.22
  YSB1174              JUNCTION     0.19     0.28     9.39     0  02:22        0.28
  YSB1171              JUNCTION     0.39     0.49     9.39     0  02:23        0.49
  YS02006553           JUNCTION     0.63     0.75     7.04     0  03:01        0.75
  YS02006561           JUNCTION     0.11     0.17     6.83     0  03:00        0.17
  YS02006556           JUNCTION     0.60     0.72     7.03     0  03:00        0.72
  YS02006558           JUNCTION     0.64     0.77     7.03     0  03:00        0.77
  YS02001783           JUNCTION     0.19     0.29     6.43     0  03:01        0.29
  YS02001784           JUNCTION     0.22     0.32     6.39     0  03:01        0.32
  YS02001786           JUNCTION     0.19     0.28     6.31     0  03:01        0.28
  YS02001788           JUNCTION     0.13     0.20     6.18     0  03:02        0.20
  YS02001790           JUNCTION     0.16     0.24     5.89     0  03:02        0.24
  YS02001791           JUNCTION     0.11     0.16     5.63     0  03:02        0.16
  YS02001793           JUNCTION     0.14     0.62     5.46     0  02:49        0.54
  WS02004139           JUNCTION     0.59     0.64     5.55     0  02:54        0.64
  WSC                  OUTFALL      0.23     0.29     0.96     0  02:52        0.29
  3                    OUTFALL      0.06     0.13     6.13     0  02:31        0.10
  4                    OUTFALL      0.00     0.00     7.00     0  00:00        0.00
  5                    OUTFALL      0.00     0.00     5.00     0  00:00        0.00
  JK-storage           STORAGE      3.82     4.58     5.38     0  03:29        4.58
  CC-storage           STORAGE      0.41     0.95     7.95     0  07:50        0.95
  XR-storage           STORAGE      6.61     7.00     5.00     0  03:25        7.00
  
  
  *******************
  Node Inflow Summary
  *******************
  
  -------------------------------------------------------------------------------------------------
                                  Maximum  Maximum                  Lateral       Total        Flow
                                  Lateral    Total  Time of Max      Inflow      Inflow     Balance
                                   Inflow   Inflow   Occurrence      Volume      Volume       Error
  Node                 Type           LPS      LPS  days hr:min    10^6 ltr    10^6 ltr     Percent
  -------------------------------------------------------------------------------------------------
  WS02001211           JUNCTION      7.35   294.60     0  07:44       0.207        6.41       0.591
  WS02001212           JUNCTION      0.00   293.57     0  02:59           0        6.37       0.312
  WS02001213           JUNCTION      0.00   294.04     0  02:59           0        6.35       0.321
  WS02003069           JUNCTION      0.32   531.89     0  02:50     0.00902        8.56       0.223
  WS02003072           JUNCTION      0.00   531.85     0  02:50           0        8.54       0.294
  WS02003073           JUNCTION      1.82   533.70     0  02:51      0.0514        8.56       0.303
  WS02003060           JUNCTION     16.53   531.37     0  02:49       0.466        8.57       0.223
  WS02003066           JUNCTION      0.00   227.43     0  02:48           0        1.81       0.100
  WS02003059           JUNCTION      0.00   295.00     0  02:58           0        6.34       0.576
  WS02003067           JUNCTION      0.00   227.44     0  02:48           0        1.81       0.270
  WS02004401           JUNCTION      0.00   250.54     0  02:44           0        1.93       0.591
  WS02004402           JUNCTION      0.00   247.94     0  02:44           0        1.92       0.599
  WS02004403           JUNCTION      0.00   245.57     0  02:44           0         1.9       0.579
  WS02004404           JUNCTION      0.16   244.47     0  02:45     0.00457         1.9       0.483
  WS02004406           JUNCTION      0.00   242.57     0  02:45           0        1.88       1.178
  WS02004409           JUNCTION      0.00   241.09     0  02:46           0        1.85       0.228
  WS02004410           JUNCTION      0.00   237.99     0  02:46           0        1.85       0.333
  WS02004411           JUNCTION      0.00   234.62     0  02:46           0        1.84       0.399
  WS02004412           JUNCTION      0.00   231.74     0  02:47           0        1.84       0.510
  WS02004413           JUNCTION      0.00   229.45     0  02:47           0        1.83       0.874
  WS02004405           JUNCTION      0.04   243.69     0  02:45     0.00107        1.89       0.719
  WS02006109           JUNCTION      1.23   259.24     0  02:42      0.0347        1.97       0.524
  WS02006110           JUNCTION      0.00   258.85     0  02:42           0        1.96       0.499
  WS02006111           JUNCTION      0.00   260.19     0  02:43           0        1.94       0.045
  WS02006112           JUNCTION      5.39   260.97     0  02:43      0.0171        1.96       0.793
  WS02006113           JUNCTION      0.00   258.55     0  02:42           0        1.95       0.111
  WS02006115           JUNCTION      0.00   258.10     0  02:43           0        1.94       0.426
  WS02006116           JUNCTION      0.00   253.78     0  02:43           0        1.94       0.448
  WS02006230           JUNCTION     10.28   159.10     0  03:02        0.29         1.3       0.372
  WS02006231           JUNCTION      0.00   151.79     0  02:39           0           1      -0.168
  WS02006232           JUNCTION      0.00   156.27     0  02:37           0        1.01       0.553
  WS02006234           JUNCTION      0.00   156.41     0  02:37           0           1      -0.799
  WS02006235           JUNCTION      0.00   179.90     0  02:50           0        1.22       0.742
  WS02006238           JUNCTION      0.00   127.02     0  02:50           0       0.432      -0.139
  WS02006240           JUNCTION      0.00    55.50     0  02:51           0        0.24       0.538
  WS02006242           JUNCTION      0.00    44.77     0  02:52           0       0.157       0.713
  WS02006243           JUNCTION      0.00    22.96     0  02:27           0       0.105       0.071
  WS02006245           JUNCTION      0.00    22.97     0  02:26           0      0.0966       0.703
  WS02006247           JUNCTION      0.00    22.99     0  02:26           0      0.0967       0.119
  WS02006248           JUNCTION      0.00    23.00     0  02:25           0      0.0967       0.036
  WS02006249           JUNCTION      0.00    23.04     0  02:24           0      0.0971       0.359
  WS02006239           JUNCTION      0.00    76.13     0  02:32           0       0.337      -0.025
  WS02006251           JUNCTION      0.08    23.07     0  02:23     0.00217      0.0971       0.080
  WS02006252           JUNCTION      0.00     0.00     0  00:00           0           0       0.000 ltr
  WS02006253           JUNCTION      0.83    23.01     0  02:23     0.00222      0.0951       0.161
  WS02006256           JUNCTION      0.00   300.00     0  02:31           0        1.88       0.588
  WS02004138           JUNCTION      0.00   285.00     0  02:10           0        6.23       0.063
  WS02004407           JUNCTION      0.00   241.48     0  02:45           0        1.85       0.103
  WS02006228           JUNCTION      0.00   258.16     0  02:42           0        1.94       0.354
  WS02006229           JUNCTION      0.00   259.00     0  02:40           0        1.95       0.542
  WS02006280           JUNCTION      0.00   124.64     0  02:24           0       0.658       0.011
  WS02006284           JUNCTION      0.10   124.64     0  02:24      0.0027       0.659       0.172
  WS02006287           JUNCTION      0.00   124.55     0  02:23           0       0.657       0.106
  WSF200               JUNCTION      0.00   227.39     0  02:48           0         1.8       0.073
  HS02004901           JUNCTION      6.68     6.68     0  02:14      0.0206      0.0207       9.258
  HS02004881           JUNCTION      2.69    22.38     0  02:23     0.00897       0.093       0.064
  HS02004876           JUNCTION      4.25    19.93     0  02:23      0.0171      0.0845       0.618
  HS02004870           JUNCTION      4.73    15.77     0  02:23       0.017      0.0675       0.158
  HS02004862           JUNCTION      3.94    11.38     0  02:23      0.0225      0.0507       0.330
  HS02004856           JUNCTION      3.50     7.47     0  02:22      0.0128      0.0296       5.102
  HS02004852           JUNCTION      0.00     4.20     0  02:23           0      0.0169       0.285
  HS02004848           JUNCTION      7.64     7.64     0  02:25        0.04        0.04       0.108
  HS02004842           JUNCTION      0.00     4.49     0  00:03           0      0.0361      56.239
  HS02004837           JUNCTION     13.90    17.17     0  02:21       0.209       0.232       0.341
  HS02004830           JUNCTION      0.15    17.32     0  02:22     0.00423       0.222       0.557
  HS02004824           JUNCTION      8.57    25.78     0  02:26      0.0525       0.273       0.198
  HS02004817           JUNCTION      0.60    26.38     0  02:26      0.0169        0.29       6.100
  HS02004807           JUNCTION      8.91    34.49     0  02:24      0.0312       0.304       1.408
  HS02004802           JUNCTION      0.00    34.56     0  02:26           0         0.3       1.373
  HS02004799           JUNCTION      6.84    76.70     0  02:21      0.0252       0.323       0.701
  HS02004792           JUNCTION     30.79    70.06     0  02:21       0.113       0.298       0.140
  HS02004788           JUNCTION     10.94    40.91     0  02:22      0.0821       0.186       0.207
  HS02004785           JUNCTION      0.15    30.37     0  02:21     0.00423       0.106       0.454
  HS02004777           JUNCTION      0.03    30.69     0  02:18    0.000846       0.106       5.123
  HS02004770           JUNCTION     26.01    31.73     0  02:16      0.0879       0.107       2.987
  HS02004480           JUNCTION      0.00    90.32     0  02:22           0       0.373       0.184
  HS02004479           JUNCTION      0.00    13.92     0  02:24           0      0.0625       1.180
  HS02004478           JUNCTION      0.00   124.56     0  02:23           0       0.658       0.100
  YS02001745           JUNCTION     41.47    68.48     0  05:30       0.487       0.509       1.262
  YS02001748           JUNCTION      0.04    83.65     0  05:28     0.00127       0.511       4.000
  YS02001751           JUNCTION      0.01    80.32     0  03:59     0.00031       0.471       5.305
  YS02001754           JUNCTION      0.26    77.46     0  03:10     0.00733       0.453       5.960
  YS02001762           JUNCTION      0.00    70.94     0  03:21           0       0.501       4.838
  YS02001765           JUNCTION      0.00    78.02     0  03:13           0       0.503       5.347
  YS02001767           JUNCTION      0.54    64.57     0  02:58      0.0151       0.526       7.461
  YS02001770           JUNCTION     54.05    63.68     0  04:12       0.582       0.608       5.793
  YS02001774           JUNCTION      0.00    33.46     0  04:09           0      0.0936      38.993
  YS02001779           JUNCTION      0.01    31.10     0  04:12    0.000141      0.0413      59.764
  YS02001882           JUNCTION      0.00     2.32     0  02:12           0     0.00356      69.165
  YS02001884           JUNCTION      0.00     7.08     0  02:12           0      0.0145      43.489
  YS02001759           JUNCTION     52.91   121.36     0  03:12       0.546        1.01       2.495
  YS02001887           JUNCTION     70.23    70.23     0  02:50       0.667       0.673       0.997
  YS02001890           JUNCTION      0.00    69.87     0  02:53           0       0.654       1.130
  YS02001898           JUNCTION      0.00    69.61     0  02:56           0       0.644       0.287
  YS02001901           JUNCTION      0.00    69.61     0  02:56           0       0.644       0.784
  YS02001904           JUNCTION      0.00    69.35     0  02:57           0       0.643       0.732
  YS02001907           JUNCTION      0.00   126.37     0  03:02           0        1.37       1.576
  YS02001910           JUNCTION      0.00    57.17     0  03:01           0       0.736       1.311
  YS02001915           JUNCTION     37.43    57.01     0  03:01       0.421        0.74       0.538
  YS02001918           JUNCTION      0.00    19.77     0  03:03           0        0.32       0.266
  YS02001619           JUNCTION     36.31    36.31     0  03:01       0.413       0.413       3.072
  YS02001629           JUNCTION      0.00    49.00     0  04:12           0       0.332       9.546
  YS02001641           JUNCTION      0.00    71.93     0  03:05           0         0.7       3.310
  YS02001644           JUNCTION     39.35   108.08     0  03:04       0.466        1.14       2.452
  YS02001652           JUNCTION      0.00    64.12     0  03:16           0       0.435       6.006
  YS02001655           JUNCTION      0.15    77.21     0  03:54     0.00434       0.458       5.776
  YS02001920           JUNCTION      2.87    19.78     0  03:02      0.0809       0.322       0.541
  YS02001923           JUNCTION      0.04    16.91     0  03:02     0.00106       0.241       0.095
  YS02001926           JUNCTION      0.05    16.93     0  03:01     0.00147       0.242       0.690
  YS02001929           JUNCTION     16.89    16.89     0  03:01       0.241       0.241       0.091
  YS02001658           JUNCTION      0.00    51.38     0  03:56           0       0.476       4.387
  YS02001661           JUNCTION      0.00    49.53     0  02:53           0       0.486       2.482
  YS02001664           JUNCTION     49.53    49.53     0  02:53       0.482       0.482       0.024
  YS02001622           JUNCTION      0.00    41.86     0  04:14           0       0.401       8.648
  YS02001633           JUNCTION     40.01    77.60     0  02:39       0.481       0.762       4.566
  YS02001649           JUNCTION      0.00   175.17     0  03:17           0        1.48       2.744
  YS02001757           JUNCTION      0.00   343.71     0  03:07           0        2.81       3.464
  YS02001895           JUNCTION      0.00    69.68     0  02:55           0       0.647       0.495
  YS02001625           JUNCTION      0.00    53.91     0  04:11           0       0.371      11.883
  YS02163301           JUNCTION      0.00    39.86     0  02:39           0       0.307       9.004
  YS02163601           JUNCTION      0.11    74.20     0  03:06      0.0031       0.728       4.486
  YS02164001           JUNCTION      0.00    72.27     0  03:04           0       0.706       3.338
  YS02001647           JUNCTION      0.00   109.61     0  03:05           0         1.1       2.804
  YSB1154              JUNCTION      7.56     7.56     0  02:19      0.0305      0.0319       4.738
  YSB6556              JUNCTION      0.00     7.51     0  02:21           0       0.033       3.921
  YSB1174              JUNCTION      7.63     7.63     0  02:13      0.0223      0.0234       5.817
  YSB1171              JUNCTION      0.00    13.91     0  02:20           0      0.0619      11.370
  YS02006553           JUNCTION      0.00   126.54     0  03:03           0        1.36       1.027
  YS02006561           JUNCTION      0.00   185.22     0  03:00           0        1.92       0.028
  YS02006556           JUNCTION      0.00   126.72     0  03:03           0        1.36       0.736
  YS02006558           JUNCTION     59.48   185.23     0  03:00       0.607        1.94       0.223
  YS02001783           JUNCTION      0.00   185.21     0  03:00           0        1.92       0.065
  YS02001784           JUNCTION      1.06   186.28     0  03:01      0.0299        1.94       0.109
  YS02001786           JUNCTION      0.06   186.32     0  03:01     0.00159        1.94       0.105
  YS02001788           JUNCTION      0.07   186.39     0  03:02       0.002        1.94       0.060
  YS02001790           JUNCTION      0.15   186.54     0  03:02     0.00437        1.95       0.077
  YS02001791           JUNCTION      0.00   186.53     0  03:02           0        1.95       0.031
  YS02001793           JUNCTION      0.00   387.54     0  02:52           0        1.97       0.348
  WS02004139           JUNCTION      0.32   286.38     0  07:43     0.00905        6.24       0.576
  WSC                  OUTFALL       0.00   533.50     0  02:52           0        8.54       0.000
  3                    OUTFALL       0.00   252.58     0  02:31           0       0.931       0.000
  4                    OUTFALL       0.00     0.00     0  00:00           0           0       0.000 ltr
  5                    OUTFALL       0.00     0.00     0  00:00           0           0       0.000 ltr
  JK-storage           STORAGE       0.00   728.03     0  02:53           0        2.11       0.510
  CC-storage           STORAGE       0.00   278.98     0  03:00           0        2.71       2.033
  XR-storage           STORAGE     267.86   267.86     0  03:01        6.45        7.05       0.000
  
  
  **********************
  Node Surcharge Summary
  **********************
  
  Surcharging occurs when water rises above the top of the highest conduit.
  ---------------------------------------------------------------------
                                               Max. Height   Min. Depth
                                   Hours       Above Crown    Below Rim
  Node                 Type      Surcharged         Meters       Meters
  ---------------------------------------------------------------------
  YS02001751           JUNCTION        0.84          0.074        1.126
  YS02001754           JUNCTION        2.59          0.295        0.855
  YS02001762           JUNCTION        3.99          0.553        0.597
  YS02001765           JUNCTION        3.74          0.503        0.597
  YS02001767           JUNCTION        3.57          0.464        0.566
  YS02001770           JUNCTION        3.39          0.428        0.492
  YS02001774           JUNCTION        3.88          0.531        0.519
  YS02001779           JUNCTION        2.39          0.267        0.413
  YS02001759           JUNCTION        4.15          0.589        0.621
  YS02001619           JUNCTION        0.29          0.024        0.586
  YS02001629           JUNCTION        0.29          0.024        0.446
  YS02001641           JUNCTION        3.81          0.516        0.584
  YS02001644           JUNCTION        3.83          0.521        0.399
  YS02001652           JUNCTION        2.80          0.327        0.803
  YS02001655           JUNCTION        1.12          0.103        1.097
  YS02001622           JUNCTION        0.57          0.049        0.571
  YS02001633           JUNCTION        3.64          0.479        0.581
  YS02001649           JUNCTION        4.04          0.563        0.487
  YS02001757           JUNCTION        4.63          0.692        0.518
  YS02001625           JUNCTION        2.94          0.349        0.431
  YS02163301           JUNCTION        3.44          0.436        0.594
  YS02163601           JUNCTION        4.00          0.555        0.525
  YS02164001           JUNCTION        3.71          0.495        0.605
  YS02001647           JUNCTION        2.91          0.343        0.557
  
  
  *********************
  Node Flooding Summary
  *********************
  
  No nodes were flooded.
  
  
  **********************
  Storage Volume Summary
  **********************
  
  --------------------------------------------------------------------------------------------------
                         Average     Avg  Evap Exfil       Maximum     Max    Time of Max    Maximum
                          Volume    Pcnt  Pcnt  Pcnt        Volume    Pcnt     Occurrence    Outflow
  Storage Unit           1000 m3    Full  Loss  Loss       1000 m3    Full    days hr:min        LPS
  --------------------------------------------------------------------------------------------------
  JK-storage               0.192      66     0     0         0.230      79       0  03:29     494.09
  CC-storage               1.145       7     0     0         2.655      17       0  07:50       0.00
  XR-storage               0.794      86     0     0         0.840      91       0  03:25     285.00
  
  
  ***********************
  Outfall Loading Summary
  ***********************
  
  -----------------------------------------------------------
                         Flow       Avg       Max       Total
                         Freq      Flow      Flow      Volume
  Outfall Node           Pcnt       LPS       LPS    10^6 ltr
  -----------------------------------------------------------
  WSC                   99.99    352.94    533.50       8.537
  3                     59.87    152.35    252.58       0.931
  4                      0.00      0.00      0.00       0.000
  5                      0.00      0.00      0.00       0.000
  -----------------------------------------------------------
  System                39.97    505.29    771.43       9.468
  
  
  ********************
  Link Flow Summary
  ********************
  
  -----------------------------------------------------------------------------
                                 Maximum  Time of Max   Maximum    Max/    Max/
                                  |Flow|   Occurrence   |Veloc|    Full    Full
  Link                 Type          LPS  days hr:min     m/sec    Flow   Depth
  -----------------------------------------------------------------------------
  WS02003066WSF200     CONDUIT    227.39     0  02:48      2.29    0.04    0.14
  WS02006287WS02006284 CONDUIT    124.54     0  02:24      1.36    0.06    0.17
  WS02006284WS02006280 CONDUIT    124.64     0  02:24      1.60    0.05    0.16
  WS02006280WS02006229 CONDUIT    124.64     0  02:24      2.57    0.03    0.11
  WS02006229WS02006228 CONDUIT    258.16     0  02:42      0.60    0.86    0.80
  WS02006256WS02006235 CONDUIT    166.35     0  04:31      2.56    1.76    1.00
  WS02006253WS02006251 CONDUIT     23.00     0  02:23      0.40    0.07    0.21
  WS02006252WS02006251 CONDUIT      0.00     0  00:00      0.00    0.00    0.00
  WS02006251WS02006249 CONDUIT     23.04     0  02:24      0.44    0.07    0.19
  WS02006249WS02006248 CONDUIT     23.00     0  02:25      0.52    0.13    0.17
  WS02006248WS02006247 CONDUIT     22.99     0  02:26      0.52    0.05    0.17
  WS02006247WS02006245 CONDUIT     22.97     0  02:26      0.46    0.18    0.19
  WS02006245WS02006243 CONDUIT     22.96     0  02:27      0.59    0.07    0.18
  WS02006243WS02006242 CONDUIT     31.43     0  02:44      0.47    0.07    0.29
  WS02006242WS02006240 CONDUIT     46.36     0  02:43      0.50    0.18    0.39
  WS02006240WS02006239 CONDUIT     60.87     0  02:43      0.59    0.19    0.41
  WS02006239WS02006238 CONDUIT     91.69     0  02:42      0.66    0.29    0.53
  WS02006238WS02006235 CONDUIT    130.51     0  02:42      1.04    0.29    0.58
  WS02006235WS02006234 CONDUIT    156.41     0  02:37      0.94    1.65    0.52
  WS02006234WS02006232 CONDUIT    156.27     0  02:37      0.82    0.32    0.60
  WS02006232WS02006231 CONDUIT    151.79     0  02:39      0.68    0.32    0.58
  WS02006231WS02006230 CONDUIT    148.82     0  03:02      0.98    2.26    0.42
  WS02006230WS02006229 CONDUIT    159.68     0  03:02      0.51    3.55    0.85
  WS02006228WS02006109 CONDUIT    258.01     0  02:42      0.57    1.13    0.84
  WS02006116WS02004401 CONDUIT    250.54     0  02:44      0.52    0.35    0.60
  WS02006115WS02006116 CONDUIT    253.78     0  02:43      0.65    0.33    0.51
  WS02006113WS02006111 CONDUIT    260.19     0  02:43      1.92    0.31    0.31
  WS02006112WS02006115 CONDUIT    258.10     0  02:43      0.50    0.15    0.63
  WS02006111WS02006112 CONDUIT    258.14     0  02:43      0.85    0.12    0.59
  WS02006110WS02006113 CONDUIT    258.55     0  02:42      0.78    0.24    0.63
  WS02006109WS02006110 CONDUIT    258.85     0  02:42      0.60    0.50    0.80
  WS02004411WS02004412 CONDUIT    231.74     0  02:47      0.77    0.33    0.48
  WS02004401WS02004402 CONDUIT    247.94     0  02:44      0.48    0.30    0.63
  WS02004413WS02003067 CONDUIT    227.44     0  02:48      0.70    0.10    0.43
  WS02004412WS02004413 CONDUIT    229.45     0  02:47      0.70    0.15    0.57
  WS02004410WS02004411 CONDUIT    234.62     0  02:46      0.68    0.32    0.45
  WS02004409WS02004410 CONDUIT    237.99     0  02:46      0.74    0.31    0.43
  WS02004407WS02004409 CONDUIT    241.09     0  02:46      1.18    0.09    0.31
  WS02004406WS02004407 CONDUIT    241.48     0  02:45      0.64    0.11    0.48
  WS02004405WS02004406 CONDUIT    242.57     0  02:45      0.38    0.48    0.76
  WS02004404WS02004405 CONDUIT    243.65     0  02:45      0.38    2.39    0.75
  WS02004403WS02004404 CONDUIT    244.31     0  02:45      0.41    0.18    0.71
  WS02004402WS02004403 CONDUIT    245.57     0  02:44      0.45    0.35    0.66
  WS02004139WS02001211 CONDUIT    287.25     0  07:44      0.54    0.36    0.51
  WS02004138WS02004139 CONDUIT    286.06     0  07:43      2.39    0.06    0.38
  WS02003067WS02003066 CONDUIT    227.43     0  02:48      0.75    0.07    0.31
  WS02001213WS02003059 CONDUIT    295.00     0  02:58      0.59    0.49    0.65
  WS02001212WS02001213 CONDUIT    294.04     0  02:59      1.19    0.45    0.36
  WS02001211WS02001212 CONDUIT    293.57     0  02:59      0.67    0.22    0.55
  WS02003072WS02003073 CONDUIT    531.88     0  02:51      1.41    1.15    0.37
  WS02003069WS02003072 CONDUIT    531.85     0  02:50      1.35    0.26    0.38
  WS02003060WS02003069 CONDUIT    531.57     0  02:50      1.62    0.21    0.33
  WS02003059WS02003060 CONDUIT    296.38     0  02:57      0.82    0.19    0.53
  HS02004901HS02004770 CONDUIT      5.99     0  02:21      0.03    0.02    0.26
  HS02004876HS02004881 CONDUIT     19.94     0  02:23      0.39    0.21    0.07
  HS02004870HS02004876 CONDUIT     15.76     0  02:23      0.27    0.01    0.08
  HS02004842HS02004848 CONDUIT      3.65     0  02:35      0.02    0.00    0.26
  HS02004837HS02004842 CONDUIT      4.49     0  00:03      0.42    0.00    0.28
  HS02004830HS02004837 CONDUIT     17.17     0  02:22      0.38    0.02    0.06
  HS02004824HS02004830 CONDUIT     17.32     0  02:23      0.43    0.02    0.06
  HS02004817HS02004824 CONDUIT     25.78     0  02:26      0.17    0.01    0.37
  HS02004770HS02004777 CONDUIT     30.66     0  02:18      0.16    0.06    0.28
  HS02004799HS02004480 CONDUIT     76.57     0  02:21      0.45    0.10    0.24
  HS02004792HS02004799 CONDUIT     70.02     0  02:21      0.52    0.04    0.19
  HS02004788HS02004792 CONDUIT     40.87     0  02:23      0.69    0.03    0.09
  HS02004785HS02004788 CONDUIT     30.25     0  02:23      0.40    0.23    0.11
  HS02004777HS02004785 CONDUIT     30.22     0  02:21      0.19    0.04    0.22
  HS02004480HS02004478 CONDUIT     90.30     0  02:22      0.77    0.38    0.17
  HS02004479HS02004480 CONDUIT     14.03     0  02:24      0.15    0.01    0.24
  HS02004862HS02004870 CONDUIT     11.34     0  02:24      0.37    0.01    0.04
  HS02004848HS02004852 CONDUIT      4.20     0  02:23      0.24    0.00    0.03
  HS02004856HS02004862 CONDUIT      7.45     0  02:24      0.27    0.01    0.04
  HS02004852HS02004856 CONDUIT      4.17     0  02:25      0.08    0.00    0.08
  HS02004802HS02004478 CONDUIT     34.72     0  02:27      0.24    0.03    0.21
  HS02004478WS02006287 CONDUIT    124.55     0  02:23      1.05    0.03    0.13
  HS02004817HS02004807 CONDUIT     26.61     0  02:28      0.08    0.02    0.47
  HS02004807HS02004802 CONDUIT     34.56     0  02:26      0.19    0.07    0.25
  YS02001759YS02001757 CONDUIT    116.31     0  02:59      0.16    0.08    1.00
  YS02001762YS02001759 CONDUIT     73.66     0  03:12      0.17    0.08    1.00
  YS02001765YS02001762 CONDUIT     70.94     0  03:21      0.22    0.07    1.00
  YS02001770YS02001767 CONDUIT     64.04     0  02:58      0.30    0.25    1.00
  YS02001774YS02001770 CONDUIT     33.46     0  04:09      0.12    0.02    1.00
  YS02001779YS02001774 CONDUIT     31.10     0  04:12      0.07    0.02    1.00
  YS02001649YS02001757 CONDUIT    161.81     0  03:07      0.21    0.10    1.00
  YS02001767YS02001765 CONDUIT     78.02     0  03:13      0.26    0.10    1.00
  YS02006561YS02001783 CONDUIT    185.21     0  03:00      1.55    0.10    0.29
  YS02001783YS02001784 CONDUIT    185.22     0  03:01      1.04    0.26    0.39
  YS02001784YS02001785 CONDUIT    186.27     0  03:01      1.08    0.43    0.37
  YS02001788YS02001790 CONDUIT    186.38     0  03:02      1.63    0.14    0.28
  YS02001790YS02001791 CONDUIT    186.53     0  03:02      1.91    0.20    0.26
  YS02001791YS02001793 CONDUIT    197.28     0  03:07      3.74    0.08    0.48
  YS02001910YS02001907 CONDUIT     57.15     0  03:01      0.49    0.03    0.63
  YS02001786YS02001788 CONDUIT    186.32     0  03:02      1.49    0.36    0.30
  YS02001915YS02001910 CONDUIT     57.17     0  03:01      0.44    0.03    0.42
  YS02001918YS02001915 CONDUIT     19.76     0  03:04      0.44    0.01    0.20
  YS02001923YS02001920 CONDUIT     16.91     0  03:02      0.34    0.01    0.12
  YS02001926YS02001923 CONDUIT     16.87     0  03:02      0.39    0.02    0.10
  YS02001929YS02001926 CONDUIT     16.88     0  03:01      0.41    0.01    0.10
  YS02001920YS02001918 CONDUIT     19.77     0  03:03      0.37    0.02    0.12
  YS02001629YS02163301 CONDUIT     39.86     0  02:39      0.09    0.05    1.00
  YS02001619YS02001622 CONDUIT     41.86     0  04:14      0.56    0.06    1.00
  YS02001622YS02001625 CONDUIT     42.46     0  04:11      0.19    0.02    1.00
  YS02001625YS02001629 CONDUIT     49.00     0  04:12      0.19    0.02    1.00
  YS02163301YS02001633 CONDUIT     41.19     0  02:39      0.08    0.04    1.00
  YS02163601YS02164001 CONDUIT     72.27     0  03:04      0.11    0.06    1.00
  YS02164001YS02001641 CONDUIT     71.93     0  03:05      0.11    0.10    1.00
  YS02001641YS02001644 CONDUIT     69.53     0  03:04      0.13    0.22    1.00
  YS02001647YS02001649 CONDUIT    110.08     0  03:03      0.18    0.06    1.00
  YS02006553YS02006556 CONDUIT    126.72     0  03:03      0.21    0.11    0.72
  YS02006556YS02006558 CONDUIT    126.85     0  03:04      0.20    0.10    0.75
  YSB6556YSB1171       CONDUIT      7.57     0  02:25      0.04    0.01    0.51
  YS02001907YS02006553 CONDUIT    126.54     0  03:03      0.17    0.15    0.82
  YS02006558YS02006561 CONDUIT    185.22     0  03:00      2.00    0.41    0.36
  YS02001633YS02163601 CONDUIT     74.09     0  03:06      0.13    0.08    1.00
  YS02001644YS02001647 CONDUIT    109.61     0  03:05      0.18    0.06    1.00
  YS02001745YS02001748 CONDUIT     83.60     0  05:28      1.23    0.03    0.62
  YS02001748YS02001751 CONDUIT     80.31     0  03:59      0.96    0.04    0.94
  YS02001751YS02001754 CONDUIT     68.48     0  03:03      0.87    0.03    1.00
  YS02001754YS02001757 CONDUIT     85.38     0  03:09      0.33    0.03    1.00
  YS02001882YS02001884 CONDUIT      2.32     0  02:12      0.06    0.00    0.36
  YS02001884YS02001887 CONDUIT      7.08     0  02:12      0.05    0.01    0.45
  YS02001890YS02001895 CONDUIT     69.68     0  02:55      0.22    0.03    0.42
  YS02001895YS02001898 CONDUIT     69.61     0  02:56      0.43    0.12    0.29
  YS02001898YS02001901 CONDUIT     69.61     0  02:56      0.27    0.04    0.37
  YS02001901YS02001904 CONDUIT     69.35     0  02:57      0.22    0.11    0.42
  YS02001904YS02001907 CONDUIT     69.49     0  03:02      0.15    0.02    0.58
  YS02001887YS02001890 CONDUIT     69.87     0  02:53      0.18    0.12    0.51
  YS02001652YS02001649 CONDUIT     73.40     0  03:53      0.28    0.04    1.00
  YS02001655YS02001652 CONDUIT     64.12     0  03:16      0.93    0.03    1.00
  YS02001658YS02001655 CONDUIT     77.06     0  03:54      1.10    0.03    0.91
  YS02001661YS02001658 CONDUIT     49.53     0  02:53      1.24    0.02    0.65
  YS02001664YS02001661 CONDUIT     49.53     0  02:53      0.86    0.02    0.29
  YSB1154YSB6556       CONDUIT      7.51     0  02:21      0.19    0.01    0.40
  YSB1174YSB1171       CONDUIT      7.06     0  02:15      0.04    0.01    0.52
  YSB1171HS02004479    CONDUIT     13.92     0  02:24      0.54    0.01    0.39
  HS02004881HS02006253 CONDUIT     22.38     0  02:23      1.34    0.00    0.02
  YS02001793JiankangQianchi CONDUIT    728.03     0  02:53      1.52    0.06    0.81
  YS02001757CaochengTiaoxuchi CONDUIT    278.98     0  03:00      0.65    0.12    0.98
  WSF200WS02003060     CONDUIT    227.34     0  02:49      1.18    0.05    0.23
  1                    CONDUIT    533.50     0  02:52      2.79    0.19    0.29
  2                    CONDUIT      0.00     0  00:00      0.00    0.00    0.00
  3                    CONDUIT    252.58     0  02:31      8.34    0.40    0.47
  4                    CONDUIT      0.00     0  00:00      0.00    0.00    0.00
  CC-Pump-1            PUMP         0.00     0  00:00              0.00
  CC-Pump-2            PUMP         0.00     0  00:00              0.00
  JK-Pump-1            PUMP       300.00     0  02:31              1.00
  JK-Pump-2            PUMP         0.00     0  00:00              0.00
  XR-Pump-1            PUMP        95.00     0  00:00              1.00
  XR-Pump-2            PUMP        95.00     0  00:25              1.00
  XR-Pump-3            PUMP        95.00     0  02:10              1.00
  XR-Pump-4            PUMP         0.00     0  00:00              0.00
  
  
  ***************************
  Flow Classification Summary
  ***************************
  
  -------------------------------------------------------------------------------------
                      Adjusted    ---------- Fraction of Time in Flow Class ---------- 
                       /Actual         Up    Down  Sub   Sup   Up    Down  Norm  Inlet 
  Conduit               Length    Dry  Dry   Dry   Crit  Crit  Crit  Crit  Ltd   Ctrl  
  -------------------------------------------------------------------------------------
  WS02003066WSF200        1.00   0.15  0.00  0.00  0.00  0.85  0.00  0.00  0.68  0.00
  WS02006287WS02006284    1.00   0.04  0.04  0.00  0.63  0.30  0.00  0.00  0.81  0.00
  WS02006284WS02006280    1.00   0.06  0.00  0.00  0.00  0.00  0.00  0.94  0.00  0.00
  WS02006280WS02006229    1.00   0.06  0.00  0.00  0.00  0.00  0.00  0.94  0.00  0.00
  WS02006229WS02006228    1.00   0.00  0.00  0.00  1.00  0.00  0.00  0.00  0.00  0.00
  WS02006256WS02006235    1.00   0.09  0.00  0.00  0.84  0.07  0.00  0.00  0.05  0.00
  WS02006253WS02006251    1.00   0.02  0.03  0.00  0.95  0.00  0.01  0.00  0.00  0.00
  WS02006252WS02006251    1.00   1.00  0.00  0.00  0.00  0.00  0.00  0.00  0.00  0.00
  WS02006251WS02006249    1.00   0.00  0.00  0.00  1.00  0.00  0.00  0.00  0.98  0.00
  WS02006249WS02006248    1.00   0.00  0.01  0.00  0.00  0.00  0.99  0.00  0.00  0.00
  WS02006248WS02006247    1.00   0.01  0.00  0.00  0.97  0.00  0.00  0.02  0.87  0.00
  WS02006247WS02006245    1.00   0.01  0.00  0.00  0.95  0.00  0.00  0.04  0.00  0.00
  WS02006245WS02006243    1.00   0.01  0.00  0.00  0.85  0.00  0.00  0.14  0.11  0.00
  WS02006243WS02006242    1.00   0.02  0.00  0.00  0.93  0.00  0.00  0.06  0.60  0.00
  WS02006242WS02006240    1.00   0.02  0.05  0.00  0.92  0.00  0.01  0.00  0.01  0.00
  WS02006240WS02006239    1.00   0.08  0.00  0.00  0.78  0.00  0.00  0.15  0.09  0.00
  WS02006239WS02006238    1.00   0.08  0.00  0.00  0.91  0.00  0.00  0.02  0.05  0.00
  WS02006238WS02006235    1.00   0.08  0.01  0.00  0.91  0.00  0.00  0.00  0.00  0.00
  WS02006235WS02006234    1.00   0.10  0.01  0.00  0.79  0.00  0.10  0.00  0.00  0.00
  WS02006234WS02006232    1.00   0.11  0.00  0.00  0.89  0.00  0.00  0.00  0.02  0.00
  WS02006232WS02006231    1.00   0.11  0.02  0.00  0.85  0.00  0.02  0.00  0.01  0.00
  WS02006231WS02006230    1.00   0.13  0.00  0.00  0.03  0.00  0.84  0.00  0.00  0.00
  WS02006230WS02006229    1.00   0.00  0.00  0.00  0.99  0.00  0.00  0.01  0.03  0.00
  WS02006228WS02006109    1.00   0.00  0.00  0.00  1.00  0.00  0.00  0.00  0.00  0.00
  WS02006116WS02004401    1.00   0.05  0.00  0.00  0.95  0.00  0.00  0.00  0.01  0.00
  WS02006115WS02006116    1.00   0.05  0.00  0.00  0.91  0.00  0.00  0.05  0.00  0.00
  WS02006113WS02006111    1.00   0.03  0.00  0.00  0.01  0.96  0.00  0.00  0.10  0.00
  WS02006112WS02006115    1.00   0.03  0.02  0.00  0.95  0.00  0.00  0.00  0.00  0.00
  WS02006111WS02006112    1.00   0.03  0.00  0.00  0.97  0.00  0.00  0.00  0.92  0.00
  WS02006110WS02006113    1.00   0.00  0.02  0.00  0.97  0.00  0.00  0.00  0.00  0.00
  WS02006109WS02006110    1.00   0.00  0.00  0.00  0.99  0.00  0.01  0.00  0.00  0.00
  WS02004411WS02004412    1.00   0.12  0.00  0.00  0.88  0.00  0.00  0.00  0.00  0.00
  WS02004401WS02004402    1.00   0.05  0.00  0.00  0.95  0.00  0.00  0.00  0.04  0.00
  WS02004413WS02003067    1.00   0.13  0.02  0.00  0.00  0.00  0.85  0.00  0.00  0.00
  WS02004412WS02004413    1.00   0.12  0.00  0.00  0.87  0.00  0.00  0.00  0.00  0.00
  WS02004410WS02004411    1.00   0.12  0.00  0.00  0.88  0.00  0.00  0.00  0.00  0.00
  WS02004409WS02004410    1.00   0.12  0.00  0.00  0.88  0.00  0.00  0.00  0.00  0.00
  WS02004407WS02004409    1.00   0.12  0.00  0.00  0.87  0.01  0.00  0.00  0.72  0.00
  WS02004406WS02004407    1.00   0.00  0.12  0.00  0.88  0.00  0.00  0.00  0.00  0.00
  WS02004405WS02004406    1.00   0.00  0.00  0.00  1.00  0.00  0.00  0.00  0.04  0.00
  WS02004404WS02004405    1.00   0.00  0.00  0.00  1.00  0.00  0.00  0.00  0.01  0.00
  WS02004403WS02004404    1.00   0.00  0.05  0.00  0.95  0.00  0.00  0.00  0.04  0.00
  WS02004402WS02004403    1.00   0.05  0.00  0.00  0.95  0.00  0.00  0.00  0.00  0.00
  WS02004139WS02001211    1.00   0.00  0.00  0.00  1.00  0.00  0.00  0.00  0.00  0.00
  WS02004138WS02004139    1.00   0.00  0.00  0.00  1.00  0.00  0.00  0.00  1.00  0.00
  WS02003067WS02003066    1.00   0.15  0.01  0.00  0.85  0.00  0.00  0.00  0.00  0.00
  WS02001213WS02003059    1.00   0.00  0.00  0.00  1.00  0.00  0.00  0.00  0.00  0.00
  WS02001212WS02001213    1.00   0.00  0.00  0.00  0.10  0.00  0.90  0.00  0.00  0.00
  WS02001211WS02001212    1.00   0.00  0.00  0.00  1.00  0.00  0.00  0.00  0.00  0.00
  WS02003072WS02003073    1.00   0.00  0.00  0.00  0.00  0.00  0.00  1.00  0.00  0.00
  WS02003069WS02003072    1.00   0.00  0.00  0.00  1.00  0.00  0.00  0.00  0.73  0.00
  WS02003060WS02003069    1.00   0.00  0.00  0.00  0.99  0.01  0.00  0.00  0.40  0.00
  WS02003059WS02003060    1.00   0.00  0.00  0.00  1.00  0.00  0.00  0.00  0.02  0.00
  HS02004901HS02004770    1.00   0.05  0.00  0.00  0.94  0.00  0.00  0.00  0.03  0.00
  HS02004876HS02004881    1.00   0.01  0.00  0.00  0.99  0.00  0.00  0.00  0.00  0.00
  HS02004870HS02004876    1.00   0.00  0.00  0.00  0.99  0.00  0.00  0.00  0.95  0.00
  HS02004842HS02004848    1.00   0.00  0.06  0.00  0.94  0.00  0.00  0.00  0.70  0.00
  HS02004837HS02004842    1.00   0.00  0.00  0.00  1.00  0.00  0.00  0.00  0.11  0.00
  HS02004830HS02004837    1.00   0.00  0.00  0.00  1.00  0.00  0.00  0.00  0.99  0.00
  HS02004824HS02004830    1.00   0.00  0.00  0.00  1.00  0.00  0.00  0.00  0.00  0.00
  HS02004817HS02004824    1.00   0.00  0.00  0.00  1.00  0.00  0.00  0.00  1.00  0.00
  HS02004770HS02004777    1.00   0.00  0.06  0.00  0.94  0.00  0.00  0.00  0.08  0.00
  HS02004799HS02004480    1.00   0.00  0.01  0.00  0.91  0.00  0.07  0.00  0.00  0.00
  HS02004792HS02004799    1.00   0.00  0.00  0.00  1.00  0.00  0.00  0.00  0.98  0.00
  HS02004788HS02004792    1.00   0.00  0.00  0.00  1.00  0.00  0.00  0.00  0.98  0.00
  HS02004785HS02004788    1.00   0.00  0.00  0.00  1.00  0.00  0.00  0.00  0.00  0.00
  HS02004777HS02004785    1.00   0.00  0.00  0.00  1.00  0.00  0.00  0.00  0.22  0.00
  HS02004480HS02004478    1.00   0.06  0.00  0.00  0.64  0.00  0.00  0.29  0.00  0.00
  HS02004479HS02004480    1.00   0.02  0.00  0.00  0.98  0.00  0.00  0.00  0.16  0.00
  HS02004862HS02004870    1.00   0.00  0.00  0.00  1.00  0.00  0.00  0.00  0.05  0.00
  HS02004848HS02004852    1.00   0.06  0.00  0.00  0.94  0.00  0.00  0.00  0.70  0.00
  HS02004856HS02004862    1.00   0.00  0.11  0.00  0.89  0.00  0.00  0.00  0.73  0.00
  HS02004852HS02004856    1.00   0.06  0.02  0.00  0.93  0.00  0.00  0.00  0.82  0.00
  HS02004802HS02004478    1.00   0.06  0.01  0.00  0.93  0.00  0.00  0.00  0.00  0.00
  HS02004478WS02006287    1.00   0.08  0.00  0.00  0.92  0.00  0.00  0.00  0.81  0.00
  HS02004817HS02004807    1.00   0.00  0.06  0.00  0.94  0.00  0.00  0.00  0.00  0.00
  HS02004807HS02004802    1.00   0.06  0.00  0.00  0.94  0.00  0.00  0.00  0.01  0.00
  YS02001759YS02001757    1.00   0.00  0.00  0.00  1.00  0.00  0.00  0.00  0.17  0.00
  YS02001762YS02001759    1.00   0.00  0.00  0.00  1.00  0.00  0.00  0.00  0.05  0.00
  YS02001765YS02001762    1.00   0.00  0.00  0.00  1.00  0.00  0.00  0.00  0.23  0.00
  YS02001770YS02001767    1.00   0.00  0.00  0.00  1.00  0.00  0.00  0.00  0.00  0.00
  YS02001774YS02001770    1.00   0.00  0.08  0.00  0.92  0.00  0.00  0.00  0.07  0.00
  YS02001779YS02001774    1.00   0.00  0.00  0.00  1.00  0.00  0.00  0.00  0.28  0.00
  YS02001649YS02001757    1.00   0.00  0.00  0.00  1.00  0.00  0.00  0.00  0.19  0.00
  YS02001767YS02001765    1.00   0.00  0.00  0.00  1.00  0.00  0.00  0.00  0.01  0.00
  YS02006561YS02001783    1.00   0.12  0.00  0.00  0.00  0.88  0.00  0.00  0.72  0.00
  YS02001783YS02001784    1.00   0.00  0.12  0.00  0.88  0.00  0.00  0.00  0.08  0.00
  YS02001784YS02001785    1.00   0.00  0.00  0.00  1.00  0.00  0.00  0.00  0.26  0.00
  YS02001788YS02001790    1.00   0.00  0.00  0.00  0.12  0.88  0.00  0.00  0.99  0.00
  YS02001790YS02001791    1.00   0.00  0.00  0.00  0.01  0.99  0.00  0.00  0.39  0.00
  YS02001791YS02001793    1.00   0.00  0.00  0.00  0.19  0.81  0.00  0.00  0.26  0.00
  YS02001910YS02001907    1.00   0.00  0.00  0.00  0.99  0.00  0.00  0.01  0.13  0.00
  YS02001786YS02001788    1.00   0.00  0.00  0.00  0.13  0.87  0.00  0.00  0.00  0.00
  YS02001915YS02001910    1.00   0.00  0.00  0.00  0.99  0.01  0.00  0.00  0.25  0.00
  YS02001918YS02001915    1.00   0.00  0.00  0.00  0.99  0.01  0.00  0.00  0.81  0.00
  YS02001923YS02001920    1.00   0.00  0.00  0.00  1.00  0.00  0.00  0.00  1.00  0.00
  YS02001926YS02001923    1.00   0.00  0.03  0.00  0.00  0.00  0.97  0.00  0.00  0.00
  YS02001929YS02001926    1.00   0.00  0.06  0.00  0.94  0.00  0.00  0.00  0.86  0.00
  YS02001920YS02001918    1.00   0.00  0.00  0.00  1.00  0.00  0.00  0.00  0.00  0.00
  YS02001629YS02163301    1.00   0.10  0.01  0.00  0.89  0.00  0.00  0.00  0.00  0.00
  YS02001619YS02001622    1.00   0.05  0.00  0.00  0.95  0.00  0.00  0.00  0.00  0.00
  YS02001622YS02001625    1.00   0.06  0.00  0.00  0.94  0.00  0.00  0.00  0.14  0.00
  YS02001625YS02001629    1.00   0.06  0.06  0.00  0.85  0.00  0.03  0.00  0.00  0.00
  YS02163301YS02001633    1.00   0.00  0.10  0.00  0.90  0.00  0.00  0.00  0.00  0.00
  YS02163601YS02164001    1.00   0.00  0.03  0.00  0.97  0.00  0.00  0.00  0.00  0.00
  YS02164001YS02001641    1.00   0.00  0.03  0.00  0.97  0.00  0.00  0.00  0.07  0.00
  YS02001641YS02001644    1.00   0.00  0.00  0.00  1.00  0.00  0.00  0.00  0.00  0.00
  YS02001647YS02001649    1.00   0.00  0.11  0.00  0.89  0.00  0.00  0.00  0.01  0.00
  YS02006553YS02006556    1.00   0.01  0.00  0.00  0.99  0.00  0.00  0.00  0.03  0.00
  YS02006556YS02006558    1.00   0.00  0.00  0.00  1.00  0.00  0.00  0.00  0.00  0.00
  YSB6556YSB1171          1.00   0.02  0.04  0.00  0.95  0.00  0.00  0.00  0.00  0.00
  YS02001907YS02006553    1.00   0.00  0.01  0.00  0.99  0.00  0.00  0.00  0.00  0.00
  YS02006558YS02006561    1.00   0.12  0.00  0.00  0.00  0.88  0.00  0.00  0.71  0.00
  YS02001633YS02163601    1.00   0.00  0.00  0.00  1.00  0.00  0.00  0.00  0.20  0.00
  YS02001644YS02001647    1.00   0.00  0.11  0.00  0.89  0.00  0.00  0.00  0.00  0.00
  YS02001745YS02001748    1.00   0.00  0.00  0.00  0.62  0.07  0.00  0.31  0.22  0.00
  YS02001748YS02001751    1.00   0.00  0.00  0.00  0.95  0.05  0.00  0.00  0.28  0.00
  YS02001751YS02001754    1.00   0.00  0.00  0.00  0.87  0.00  0.00  0.13  0.02  0.00
  YS02001754YS02001757    1.00   0.00  0.00  0.00  1.00  0.00  0.00  0.00  0.27  0.00
  YS02001882YS02001884    1.00   0.09  0.01  0.00  0.90  0.00  0.00  0.00  0.00  0.00
  YS02001884YS02001887    1.00   0.02  0.02  0.00  0.95  0.00  0.00  0.00  0.00  0.00
  YS02001890YS02001895    1.00   0.00  0.10  0.00  0.90  0.00  0.00  0.00  0.00  0.00
  YS02001895YS02001898    1.00   0.10  0.00  0.00  0.88  0.00  0.01  0.00  0.00  0.00
  YS02001898YS02001901    1.00   0.10  0.01  0.00  0.89  0.00  0.00  0.00  0.02  0.00
  YS02001901YS02001904    1.00   0.09  0.00  0.00  0.91  0.00  0.00  0.00  0.00  0.00
  YS02001904YS02001907    1.00   0.00  0.09  0.00  0.91  0.00  0.00  0.00  0.00  0.00
  YS02001887YS02001890    1.00   0.00  0.00  0.00  0.99  0.00  0.01  0.00  0.00  0.00
  YS02001652YS02001649    1.00   0.00  0.00  0.00  1.00  0.00  0.00  0.00  0.27  0.00
  YS02001655YS02001652    1.00   0.00  0.00  0.00  0.87  0.00  0.00  0.13  0.03  0.00
  YS02001658YS02001655    1.00   0.00  0.08  0.00  0.86  0.06  0.00  0.00  0.19  0.00
  YS02001661YS02001658    1.00   0.08  0.00  0.00  0.63  0.29  0.00  0.00  0.30  0.00
  YS02001664YS02001661    1.00   0.05  0.00  0.00  0.95  0.00  0.00  0.00  0.86  0.00
  YSB1154YSB6556          1.00   0.05  0.00  0.00  0.95  0.00  0.00  0.00  0.02  0.00
  YSB1174YSB1171          1.00   0.02  0.02  0.00  0.96  0.00  0.00  0.00  0.00  0.00
  YSB1171HS02004479       1.00   0.02  0.00  0.00  0.98  0.00  0.00  0.01  0.13  0.00
  HS02004881HS02006253    1.00   0.02  0.00  0.00  0.00  0.00  0.00  0.98  0.00  0.00
  YS02001793JiankangQianchi    1.00   0.00  0.00  0.00  1.00  0.00  0.00  0.00  0.71  0.00
  YS02001757CaochengTiaoxuchi    1.00   0.00  0.15  0.00  0.85  0.00  0.00  0.00  0.00  0.00
  WSF200WS02003060        1.00   0.00  0.15  0.00  0.85  0.00  0.00  0.00  0.68  0.00
  1                       1.00   0.00  0.00  0.00  0.00  1.00  0.00  0.00  0.21  0.00
  2                       1.00   1.00  0.00  0.00  0.00  0.00  0.00  0.00  0.00  0.00
  3                       1.00   0.40  0.00  0.00  0.00  0.60  0.00  0.00  0.01  0.00
  4                       1.00   1.00  0.00  0.00  0.00  0.00  0.00  0.00  0.00  0.00
  
  
  *************************
  Conduit Surcharge Summary
  *************************
  
  ----------------------------------------------------------------------------
                                                           Hours        Hours 
                         --------- Hours Full --------   Above Full   Capacity
  Conduit                Both Ends  Upstream  Dnstream   Normal Flow   Limited
  ----------------------------------------------------------------------------
  WS02006256WS02006235        1.38      1.41      5.14      1.71         0.01
  WS02006235WS02006234        0.01      0.01      0.01      1.45         0.01
  WS02006231WS02006230        0.01      0.01      0.01      1.76         0.01
  WS02006230WS02006229        0.01      0.01      0.01      3.02         0.01
  WS02006228WS02006109        0.01      0.01      0.01      0.10         0.01
  WS02004404WS02004405        0.01      0.01      0.01      1.78         0.01
  WS02003072WS02003073        0.01      0.01      0.01      0.50         0.01
  YS02001759YS02001757        4.15      4.15      4.63      0.01         0.01
  YS02001762YS02001759        3.99      3.99      4.15      0.01         0.01
  YS02001765YS02001762        3.75      3.75      3.99      0.01         0.01
  YS02001770YS02001767        3.53      3.53      3.57      0.01         0.09
  YS02001774YS02001770        3.39      3.39      3.88      0.01         0.01
  YS02001779YS02001774        2.39      2.39      3.88      0.01         0.01
  YS02001649YS02001757        4.04      4.04      4.63      0.01         0.01
  YS02001767YS02001765        3.57      3.57      3.75      0.01         0.01
  YS02001629YS02163301        3.26      3.26      3.43      0.01         0.01
  YS02001619YS02001622        0.29      0.29      0.57      0.01         0.01
  YS02001622YS02001625        0.57      0.57      2.94      0.01         0.01
  YS02001625YS02001629        0.29      0.29      2.94      0.01         0.01
  YS02163301YS02001633        3.43      3.43      3.74      0.01         0.01
  YS02163601YS02164001        3.71      3.71      4.00      0.01         0.01
  YS02164001YS02001641        3.71      3.71      3.81      0.01         0.01
  YS02001641YS02001644        3.81      3.81      3.83      0.01         0.07
  YS02001647YS02001649        2.91      2.91      4.04      0.01         0.01
  YS02001633YS02163601        3.64      3.64      4.00      0.01         0.01
  YS02001644YS02001647        2.91      2.91      3.83      0.01         0.01
  YS02001748YS02001751        0.01      0.01      0.84      0.01         0.01
  YS02001751YS02001754        0.84      0.84      2.59      0.01         0.01
  YS02001754YS02001757        2.91      2.91      4.63      0.01         0.01
  YS02001652YS02001649        2.99      2.99      4.04      0.01         0.01
  YS02001655YS02001652        1.12      1.12      2.80      0.01         0.01
  YS02001658YS02001655        0.01      0.01      1.12      0.01         0.01
  YS02001793JiankangQianchi        0.01      0.01      7.82      0.01         0.01
  YS02001757CaochengTiaoxuchi        0.01      0.01      4.63      0.01         0.01
  
  
  ***************
  Pumping Summary
  ***************
  
  ---------------------------------------------------------------------------------------------------------
                                                  Min       Avg       Max     Total     Power    % Time Off
                        Percent   Number of      Flow      Flow      Flow    Volume     Usage    Pump Curve
  Pump                 Utilized   Start-Ups       LPS       LPS       LPS  10^6 ltr     Kw-hr    Low   High
  ---------------------------------------------------------------------------------------------------------
  CC-Pump-1                0.00           0      0.00      0.00      0.00     0.000      0.00    0.0    0.0
  CC-Pump-2                0.00           0      0.00      0.00      0.00     0.000      0.00    0.0    0.0
  JK-Pump-1               22.03          13      0.00    300.00    300.00     1.864     16.63    0.0    0.0
  JK-Pump-2                0.00           0      0.00      0.00      0.00     0.000      0.00    0.0    0.0
  XR-Pump-1              100.00           1      0.00     95.00     95.00     2.679     20.48    0.0    0.0
  XR-Pump-2               94.70           1      0.00     95.00     95.00     2.537     19.05    0.0    0.0
  XR-Pump-3               38.06           6      0.00     95.00     95.00     1.020      7.68    0.0    0.0
  XR-Pump-4                0.00           0      0.00      0.00      0.00     0.000      0.00    0.0    0.0
  

  Analysis begun on:  Thu Jan  6 00:40:22 2022
  Analysis ended on:  Thu Jan  6 00:40:23 2022
  Total elapsed time: 00:00:01