
  EPA STORM WATER MANAGEMENT MODEL - VERSION 5.1 (Build 5.3.0.dev0)
  --------------------------------------------------------------

  WARNING 04: minimum elevation drop used for Conduit WS02004404WS02004405
  WARNING 03: negative offset ignored for Link YS02001904YS02001907
  
  *********************************************************
  NOTE: The summary statistics displayed in this report are
  based on results found at every computational time step,  
  not just on results from each reporting time step.
  *********************************************************
  
  ****************
  Analysis Options
  ****************
  Flow Units ............... LPS
  Process Models:
    Rainfall/Runoff ........ YES
    RDII ................... NO
    Snowmelt ............... NO
    Groundwater ............ NO
    Flow Routing ........... YES
    Ponding Allowed ........ NO
    Water Quality .......... NO
  Infiltration Method ...... HORTON
  Flow Routing Method ...... DYNWAVE
  Surcharge Method ......... EXTRAN
  Starting Date ............ 08/28/2015 08:00:00
  Ending Date .............. 08/28/2015 15:50:00
  Antecedent Dry Days ...... 8.0
  Report Time Step ......... 00:01:00
  Wet Time Step ............ 00:01:00
  Dry Time Step ............ 00:01:00
  Routing Time Step ........ 5.00 sec
  Variable Time Step ....... YES
  Maximum Trials ........... 8
  Number of Threads ........ 4
  Head Tolerance ........... 0.001500 m
  
  
  **************************        Volume         Depth
  Runoff Quantity Continuity     hectare-m            mm
  **************************     ---------       -------
  Total Precipitation ......         3.868         8.469
  Evaporation Loss .........         0.000         0.000
  Infiltration Loss ........         0.985         2.157
  Surface Runoff ...........         1.916         4.194
  Final Storage ............         0.968         2.119
  Continuity Error (%) .....        -0.017
  
  
  **************************        Volume        Volume
  Flow Routing Continuity        hectare-m      10^6 ltr
  **************************     ---------     ---------
  Dry Weather Inflow .......         0.616         6.165
  Wet Weather Inflow .......         1.915        19.148
  Groundwater Inflow .......         0.000         0.000
  RDII Inflow ..............         0.000         0.000
  External Inflow ..........         0.102         1.024
  External Outflow .........         1.426        14.257
  Flooding Loss ............         0.671         6.710
  Evaporation Loss .........         0.000         0.000
  Exfiltration Loss ........         0.000         0.000
  Initial Stored Volume ....         0.076         0.761
  Final Stored Volume ......         0.627         6.270
  Continuity Error (%) .....        -0.521
  
  
  *************************
  Highest Continuity Errors
  *************************
  Node HS02004842 (20.90%)
  Node YS02001774 (18.63%)
  Node YS02001884 (13.44%)
  Node YSB1171 (4.66%)
  Node HS02004817 (3.83%)
  
  
  ***************************
  Time-Step Critical Elements
  ***************************
  Link 3 (78.94%)
  Link YS02001793JiankangQianchi (9.06%)
  Link WS02006252WS02006251 (3.81%)
  Link WS02006280WS02006229 (2.70%)
  
  
  ********************************
  Highest Flow Instability Indexes
  ********************************
  Link WS02006113WS02006111 (51)
  Link YS02163301YS02001633 (33)
  Link YS02001629YS02163301 (32)
  Link YS02001619YS02001622 (31)
  Link YS02163601YS02164001 (31)
  
  
  *************************
  Routing Time Step Summary
  *************************
  Minimum Time Step           :     0.50 sec
  Average Time Step           :     1.15 sec
  Maximum Time Step           :     5.00 sec
  Percent in Steady State     :     0.00
  Average Iterations per Step :     4.20
  Percent Not Converging      :    19.25
  
  
  ***************************
  Subcatchment Runoff Summary
  ***************************
  
  ------------------------------------------------------------------------------------------------------------------------------
                            Total      Total      Total      Total     Imperv       Perv      Total       Total     Peak  Runoff
                           Precip      Runon       Evap      Infil     Runoff     Runoff     Runoff      Runoff   Runoff   Coeff
  Subcatchment                 mm         mm         mm         mm         mm         mm         mm    10^6 ltr      LPS
  ------------------------------------------------------------------------------------------------------------------------------
  sub0                       8.47       0.00       0.00       0.59       6.61       0.00       6.61        0.01     1.03   0.781
  sub1                       8.47       0.00       0.00       0.93       6.28       0.00       6.28        0.04     7.43   0.741
  sub2                       8.47       0.00       0.00       3.13       4.43       0.00       4.43        0.04     7.08   0.523
  sub3                       8.47       0.00       0.00       3.13       4.39       0.00       4.39        0.10    15.91   0.518
  sub4                       8.47       0.00       0.00       0.93       6.13       0.00       6.13        0.13    19.23   0.724
  sub5                       8.47       0.00       0.00       0.59       6.56       0.00       6.56        0.07    13.22   0.775
  sub7                       8.47       0.00       0.00       0.76       6.45       0.00       6.45        0.02     4.04   0.762
  sub8                       8.47       0.00       0.00       0.76       6.44       0.00       6.44        0.04     7.54   0.761
  sub9                       8.47       0.00       0.00       0.76       6.44       0.00       6.44        0.03     5.65   0.760
  sub10                      8.47       0.00       0.00       0.68       6.50       0.00       6.50        0.07    12.87   0.767
  sub11                      8.47       0.00       0.00       0.68       6.52       0.00       6.52        0.08    13.93   0.769
  sub12                      8.47       0.00       0.00       1.10       6.18       0.00       6.18        0.05    10.23   0.730
  sub14                      8.47       0.00       0.00       0.76       6.44       0.00       6.44        0.06    11.15   0.760
  sub15                      8.47       0.00       0.00       2.54       4.95       0.00       4.95        0.09    15.40   0.584
  sub16                      8.47       0.00       0.00       2.79       4.76       0.00       4.76        0.05     9.37   0.561
  sub17                      8.47       0.00       0.00       2.71       4.82       0.00       4.82        0.04     7.75   0.570
  sub22                      8.47       0.00       0.00       3.64       4.04       0.00       4.04        0.26    47.08   0.477
  sub23                      8.47       0.00       0.00       3.13       4.46       0.00       4.46        0.21    39.46   0.527
  sub60                      8.47       0.00       0.00       1.02       4.75       0.00       4.75        1.44   149.28   0.561
  sub61                      8.47       0.00       0.00       1.44       4.95       0.00       4.95        1.53   180.35   0.585
  sub62                      8.47       0.00       0.00       0.68       5.35       0.00       5.35        1.64   187.08   0.631
  sub63                      8.47       0.00       0.00       2.46       4.37       0.00       4.37        1.32   164.01   0.516
  sub64                      8.47       0.00       0.00       1.27       4.55       0.00       4.55        1.38   141.99   0.537
  sub65                      8.47       0.00       0.00       1.10       4.62       0.00       4.62        1.42   144.28   0.545
  sub66                      8.47       0.00       0.00       2.46       3.94       0.00       3.94        1.21   129.20   0.465
  sub67                      8.47       0.00       0.00       0.68       5.75       0.00       5.75        1.78   226.25   0.679
  sub68                      8.47       0.00       0.00       1.19       5.24       0.00       5.24        1.61   196.27   0.618
  sub69                      8.47       0.00       0.00       1.27       5.53       0.00       5.53        1.29   176.57   0.653
  sub70                      8.47       5.64       0.00       4.80       7.11       0.00       7.11        1.63   167.69   0.504
  sub71                      8.47       0.00       0.00       0.68       5.16       0.00       5.16        1.22   132.38   0.610
  sub72                      8.47       0.00       0.00       0.59       3.87       0.00       3.87        0.79    64.98   0.457
  sub73                      8.47       6.92       0.00       5.23       7.51       0.00       7.51        1.76   149.38   0.488
  sub74                      8.47       0.00       0.00       6.35       1.66       0.00       1.66        0.66    93.55   0.196
  
  
  ******************
  Node Depth Summary
  ******************
  
  ---------------------------------------------------------------------------------
                                 Average  Maximum  Maximum  Time of Max    Reported
                                   Depth    Depth      HGL   Occurrence   Max Depth
  Node                 Type       Meters   Meters   Meters  days hr:min      Meters
  ---------------------------------------------------------------------------------
  WS02001211           JUNCTION     0.61     0.65     5.48     0  02:37        0.65
  WS02001212           JUNCTION     0.35     0.39     5.45     0  02:37        0.39
  WS02001213           JUNCTION     0.56     0.66     5.42     0  02:35        0.66
  WS02003069           JUNCTION     0.38     0.52     5.11     0  02:34        0.52
  WS02003072           JUNCTION     0.45     0.58     4.95     0  02:35        0.58
  WS02003073           JUNCTION     0.27     0.35     4.42     0  02:35        0.35
  WS02003060           JUNCTION     0.35     0.46     5.39     0  02:33        0.46
  WS02003066           JUNCTION     0.21     0.30     5.86     0  02:32        0.30
  WS02003059           JUNCTION     0.63     0.72     5.41     0  02:34        0.72
  WS02003067           JUNCTION     0.52     0.71     6.03     0  02:32        0.71
  WS02004401           JUNCTION     0.61     0.87     6.87     0  02:30        0.87
  WS02004402           JUNCTION     0.64     0.89     6.85     0  02:30        0.89
  WS02004403           JUNCTION     0.67     0.91     6.84     0  02:29        0.91
  WS02004404           JUNCTION     0.74     0.98     6.83     0  02:29        0.98
  WS02004406           JUNCTION     0.75     0.97     6.80     0  02:30        0.97
  WS02004409           JUNCTION     0.43     0.68     6.45     0  02:31        0.68
  WS02004410           JUNCTION     0.45     0.70     6.42     0  02:31        0.70
  WS02004411           JUNCTION     0.47     0.70     6.38     0  02:32        0.70
  WS02004412           JUNCTION     0.48     0.71     6.35     0  02:32        0.71
  WS02004413           JUNCTION     0.64     0.87     6.34     0  02:32        0.87
  WS02004405           JUNCTION     0.74     0.97     6.82     0  02:29        0.97
  WS02006109           JUNCTION     0.68     0.99     7.61     0  02:27        0.99
  WS02006110           JUNCTION     0.68     0.93     7.52     0  02:28        0.93
  WS02006111           JUNCTION     0.19     0.29     7.00     0  02:28        0.29
  WS02006112           JUNCTION     0.77     1.11     6.99     0  02:32        1.09
  WS02006113           JUNCTION     0.29     0.46     7.35     0  02:28        0.46
  WS02006115           JUNCTION     0.50     0.77     6.91     0  02:29        0.77
  WS02006116           JUNCTION     0.58     0.85     6.89     0  02:30        0.85
  WS02006230           JUNCTION     0.63     1.04     7.78     0  02:27        1.04
  WS02006231           JUNCTION     0.42     0.71     7.83     0  02:27        0.71
  WS02006232           JUNCTION     0.54     0.84     7.88     0  02:27        0.84
  WS02006234           JUNCTION     0.45     0.78     7.93     0  02:27        0.78
  WS02006235           JUNCTION     0.48     0.81     7.97     0  02:27        0.81
  WS02006238           JUNCTION     0.50     0.84     7.98     0  02:27        0.84
  WS02006240           JUNCTION     0.38     0.76     8.05     0  02:27        0.76
  WS02006242           JUNCTION     0.41     0.82     8.09     0  02:27        0.82
  WS02006243           JUNCTION     0.28     0.71     8.13     0  02:27        0.71
  WS02006245           JUNCTION     0.24     0.68     8.17     0  02:27        0.68
  WS02006247           JUNCTION     0.24     0.69     8.19     0  02:28        0.69
  WS02006248           JUNCTION     0.21     0.62     8.21     0  02:27        0.62
  WS02006249           JUNCTION     0.23     0.63     8.23     0  02:27        0.63
  WS02006239           JUNCTION     0.45     0.81     8.01     0  02:27        0.81
  WS02006251           JUNCTION     0.22     0.67     8.34     0  02:27        0.67
  WS02006252           JUNCTION     0.21     0.59     8.84     0  02:59        0.59
  WS02006253           JUNCTION     0.26     0.69     8.34     0  02:26        0.69
  WS02006256           JUNCTION     1.03     1.15     8.09     0  00:00        1.13
  WS02004138           JUNCTION     0.14     0.14     7.39     0  00:00        0.14
  WS02004407           JUNCTION     0.19     0.30     6.62     0  02:30        0.30
  WS02006228           JUNCTION     0.68     1.03     7.68     0  02:27        1.03
  WS02006229           JUNCTION     0.65     1.03     7.72     0  02:27        1.03
  WS02006280           JUNCTION     0.07     0.14     8.41     0  02:27        0.14
  WS02006284           JUNCTION     0.37     0.48     8.88     0  02:27        0.48
  WS02006287           JUNCTION     0.10     0.21     9.16     0  02:27        0.21
  WSF200               JUNCTION     0.19     0.31     5.55     0  02:33        0.31
  HS02004901           JUNCTION     0.13     0.22    10.04     0  02:25        0.22
  HS02004881           JUNCTION     0.01     0.02     9.05     0  02:26        0.02
  HS02004876           JUNCTION     0.05     0.10     9.13     0  02:25        0.10
  HS02004870           JUNCTION     0.02     0.04     9.33     0  02:26        0.04
  HS02004862           JUNCTION     0.02     0.05     9.43     0  02:27        0.05
  HS02004856           JUNCTION     0.08     0.11     9.53     0  02:26        0.11
  HS02004852           JUNCTION     0.01     0.03     9.54     0  02:27        0.03
  HS02004848           JUNCTION     0.01     0.03     9.63     0  02:26        0.03
  HS02004842           JUNCTION     0.33     0.36     9.63     0  02:26        0.36
  HS02004837           JUNCTION     0.03     0.05     9.63     0  02:26        0.05
  HS02004830           JUNCTION     0.04     0.06     9.53     0  02:26        0.06
  HS02004824           JUNCTION     0.02     0.04     9.45     0  02:27        0.04
  HS02004817           JUNCTION     0.43     0.53     9.37     0  02:27        0.53
  HS02004807           JUNCTION     0.13     0.20     9.37     0  02:27        0.20
  HS02004802           JUNCTION     0.16     0.24     9.37     0  02:27        0.24
  HS02004799           JUNCTION     0.13     0.25     9.46     0  02:25        0.25
  HS02004792           JUNCTION     0.04     0.09     9.62     0  02:25        0.09
  HS02004788           JUNCTION     0.03     0.07     9.97     0  02:26        0.07
  HS02004785           JUNCTION     0.05     0.13    10.03     0  02:25        0.13
  HS02004777           JUNCTION     0.15     0.24    10.04     0  02:25        0.24
  HS02004770           JUNCTION     0.12     0.21    10.04     0  02:25        0.21
  HS02004480           JUNCTION     0.09     0.19     9.43     0  02:26        0.19
  HS02004479           JUNCTION     0.12     0.23     9.43     0  02:25        0.23
  HS02004478           JUNCTION     0.06     0.12     9.35     0  02:26        0.12
  YS02001745           JUNCTION     0.51     0.86     8.38     0  04:18        0.86
  YS02001748           JUNCTION     0.86     1.31     8.39     0  04:14        1.30
  YS02001751           JUNCTION     1.04     1.93     8.81     0  03:22        1.50
  YS02001754           JUNCTION     1.29     2.00     8.61     0  03:23        1.78
  YS02001762           JUNCTION     1.48     2.01     8.41     0  04:12        2.00
  YS02001765           JUNCTION     1.44     1.96     8.41     0  04:04        1.94
  YS02001767           JUNCTION     1.40     1.91     8.40     0  04:09        1.90
  YS02001770           JUNCTION     1.40     1.90     8.39     0  04:02        1.88
  YS02001774           JUNCTION     1.46     1.97     8.39     0  04:09        1.95
  YS02001779           JUNCTION     1.22     1.68     8.37     0  04:00        1.68
  YS02001882           JUNCTION     0.39     0.63     7.35     0  03:05        0.62
  YS02001884           JUNCTION     0.48     0.73     7.34     0  03:01        0.73
  YS02001759           JUNCTION     1.52     2.05     8.41     0  04:14        2.03
  YS02001887           JUNCTION     0.56     0.81     7.34     0  03:01        0.81
  YS02001890           JUNCTION     0.59     0.83     7.34     0  03:02        0.83
  YS02001898           JUNCTION     0.36     0.59     7.33     0  03:04        0.59
  YS02001901           JUNCTION     0.47     0.72     7.33     0  03:02        0.71
  YS02001904           JUNCTION     0.45     0.70     7.33     0  03:02        0.70
  YS02001907           JUNCTION     0.78     1.06     7.35     0  03:08        1.04
  YS02001910           JUNCTION     0.57     0.82     7.33     0  03:02        0.82
  YS02001915           JUNCTION     0.37     0.61     7.32     0  03:04        0.60
  YS02001918           JUNCTION     0.12     0.25     7.32     0  03:05        0.25
  YS02001619           JUNCTION     1.01     1.61     8.54     0  03:35        1.47
  YS02001629           JUNCTION     1.35     1.85     8.40     0  03:43        1.83
  YS02001641           JUNCTION     1.45     1.94     8.37     0  03:59        1.92
  YS02001644           JUNCTION     1.46     1.92     8.35     0  03:54        1.92
  YS02001652           JUNCTION     1.30     2.13     8.73     0  03:10        1.83
  YS02001655           JUNCTION     1.07     2.20     9.05     0  02:58        1.60
  YS02001920           JUNCTION     0.22     0.33     7.34     0  03:03        0.33
  YS02001923           JUNCTION     0.09     0.12     7.38     0  03:02        0.12
  YS02001926           JUNCTION     0.18     0.23     7.67     0  03:02        0.23
  YS02001929           JUNCTION     0.09     0.12     7.81     0  03:01        0.12
  YS02001658           JUNCTION     0.81     1.89     9.03     0  03:35        1.35
  YS02001661           JUNCTION     0.61     1.73     9.14     0  04:02        1.13
  YS02001664           JUNCTION     0.26     0.56     8.49     0  04:02        0.55
  YS02001622           JUNCTION     1.03     1.57     8.47     0  03:35        1.49
  YS02001633           JUNCTION     1.44     1.95     8.40     0  04:00        1.91
  YS02001649           JUNCTION     1.49     2.05     8.44     0  04:02        2.01
  YS02001757           JUNCTION     1.61     2.16     8.42     0  04:14        2.14
  YS02001895           JUNCTION     0.35     0.59     7.33     0  03:04        0.58
  YS02001625           JUNCTION     1.31     1.78     8.38     0  03:38        1.78
  YS02163301           JUNCTION     1.38     1.88     8.40     0  04:00        1.85
  YS02163601           JUNCTION     1.49     1.99     8.39     0  04:00        1.96
  YS02164001           JUNCTION     1.43     1.92     8.38     0  03:59        1.90
  YS02001647           JUNCTION     1.29     1.80     8.41     0  04:03        1.77
  YSB1154              JUNCTION     0.26     0.38     9.43     0  02:26        0.38
  YSB6556              JUNCTION     0.16     0.26     9.43     0  02:26        0.26
  YSB1174              JUNCTION     0.21     0.32     9.43     0  02:26        0.32
  YSB1171              JUNCTION     0.41     0.53     9.43     0  02:25        0.53
  YS02006553           JUNCTION     0.78     1.05     7.34     0  03:08        1.03
  YS02006561           JUNCTION     0.19     0.39     7.05     0  02:57        0.39
  YS02006556           JUNCTION     0.75     1.02     7.33     0  03:02        1.00
  YS02006558           JUNCTION     0.80     1.07     7.33     0  03:03        1.04
  YS02001783           JUNCTION     0.40     1.21     7.36     0  02:56        0.95
  YS02001784           JUNCTION     0.44     1.30     7.37     0  02:56        0.97
  YS02001786           JUNCTION     0.41     1.55     7.58     0  02:56        0.93
  YS02001788           JUNCTION     0.37     1.23     7.20     0  02:56        0.90
  YS02001790           JUNCTION     0.51     1.43     7.07     0  02:56        1.14
  YS02001791           JUNCTION     0.51     1.55     7.02     0  02:53        1.21
  YS02001793           JUNCTION     0.75     2.70     7.53     0  02:50        1.79
  WS02004139           JUNCTION     0.55     0.58     5.49     0  02:37        0.58
  WSC                  OUTFALL      0.27     0.35     1.02     0  02:36        0.35
  3                    OUTFALL      0.09     0.13     6.13     0  00:00        0.13
  4                    OUTFALL      0.03     0.13     7.13     0  02:28        0.13
  5                    OUTFALL      0.00     0.00     5.00     0  00:00        0.00
  JK-storage           STORAGE      3.00     5.80     6.60     0  02:56        5.80
  CC-storage           STORAGE      0.82     1.38     8.38     0  04:14        1.38
  XR-storage           STORAGE      7.42     7.72     5.72     0  02:21        7.72
  
  
  *******************
  Node Inflow Summary
  *******************
  
  -------------------------------------------------------------------------------------------------
                                  Maximum  Maximum                  Lateral       Total        Flow
                                  Lateral    Total  Time of Max      Inflow      Inflow     Balance
                                   Inflow   Inflow   Occurrence      Volume      Volume       Error
  Node                 Type           LPS      LPS  days hr:min    10^6 ltr    10^6 ltr     Percent
  -------------------------------------------------------------------------------------------------
  WS02001211           JUNCTION      7.35   199.34     0  03:32       0.207        5.54       0.549
  WS02001212           JUNCTION      0.00   201.29     0  03:32           0        5.51       0.286
  WS02001213           JUNCTION      0.00   202.94     0  03:33           0        5.49       0.330
  WS02003069           JUNCTION      0.32   773.44     0  02:34     0.00902        11.2       0.167
  WS02003072           JUNCTION      0.00   773.42     0  02:34           0        11.2       0.224
  WS02003073           JUNCTION      1.82   775.24     0  02:35      0.0514        11.2       0.236
  WS02003060           JUNCTION     16.53   773.15     0  02:33       0.466        11.2       0.161
  WS02003066           JUNCTION      0.00   559.75     0  02:32           0        5.29       0.049
  WS02003059           JUNCTION      0.00   206.62     0  03:33           0        5.48       0.567
  WS02003067           JUNCTION      0.00   559.75     0  02:32           0        5.29       0.116
  WS02004401           JUNCTION      0.00   560.95     0  02:27           0        5.45       0.264
  WS02004402           JUNCTION      0.00   560.27     0  02:27           0        5.43       0.260
  WS02004403           JUNCTION      0.00   560.04     0  02:29           0        5.42       0.245
  WS02004404           JUNCTION      0.16   560.27     0  02:30     0.00457        5.41       0.195
  WS02004406           JUNCTION      0.00   560.21     0  02:29           0        5.38       0.479
  WS02004409           JUNCTION      0.00   560.01     0  02:30           0        5.36       0.146
  WS02004410           JUNCTION      0.00   559.88     0  02:30           0        5.35       0.180
  WS02004411           JUNCTION      0.00   559.82     0  02:31           0        5.34       0.199
  WS02004412           JUNCTION      0.00   559.78     0  02:31           0        5.33       0.234
  WS02004413           JUNCTION      0.00   559.76     0  02:32           0        5.31       0.375
  WS02004405           JUNCTION      0.04   560.18     0  02:29     0.00107         5.4       0.293
  WS02006109           JUNCTION      1.23   553.60     0  02:27      0.0347        5.48       0.287
  WS02006110           JUNCTION      0.00   553.57     0  02:27           0        5.47       0.236
  WS02006111           JUNCTION      0.00   576.37     0  02:28           0        5.45       0.040
  WS02006112           JUNCTION      7.75   566.88     0  02:28      0.0414        5.49       0.399
  WS02006113           JUNCTION      0.00   554.12     0  02:28           0        5.46       0.084
  WS02006115           JUNCTION      0.00   576.77     0  02:28           0        5.47       0.204
  WS02006116           JUNCTION      0.00   563.41     0  02:27           0        5.46       0.207
  WS02006230           JUNCTION     10.28   372.54     0  03:11        0.29        4.17       0.217
  WS02006231           JUNCTION      0.00   360.92     0  03:11           0        3.88       0.113
  WS02006232           JUNCTION      0.00   360.85     0  03:11           0        3.89       0.264
  WS02006234           JUNCTION      0.00   366.54     0  02:03           0        3.89       0.054
  WS02006235           JUNCTION      0.00   373.66     0  02:03           0        3.93       0.170
  WS02006238           JUNCTION      0.00   294.09     0  02:04           0        1.49       0.222
  WS02006240           JUNCTION      0.00   324.72     0  02:03           0        1.47       0.192
  WS02006242           JUNCTION      0.00   338.62     0  02:03           0        1.46       0.223
  WS02006243           JUNCTION      0.00   351.63     0  02:02           0        1.45      -0.175
  WS02006245           JUNCTION      0.00   359.23     0  02:02           0        1.45       0.169
  WS02006247           JUNCTION      0.00   365.35     0  02:02           0        1.45       0.009
  WS02006248           JUNCTION      0.00   370.59     0  02:02           0        1.45      -0.057
  WS02006249           JUNCTION      0.00   441.76     0  02:27           0        2.09       0.070
  WS02006239           JUNCTION      0.00   306.53     0  02:03           0        1.48       0.265
  WS02006251           JUNCTION      0.08   441.77     0  02:26     0.00217        2.09      -0.006
  WS02006252           JUNCTION      0.00   400.00     0  02:01           0        1.85       0.013
  WS02006253           JUNCTION      1.03    41.74     0  02:26     0.00535       0.235       0.020
  WS02006256           JUNCTION      0.00   300.00     0  00:00           0        4.92       0.049
  WS02004138           JUNCTION      0.00   190.00     0  03:10           0        5.36       0.074
  WS02004407           JUNCTION      0.00   560.04     0  02:30           0        5.36       0.069
  WS02006228           JUNCTION      0.00   552.37     0  02:27           0        5.46       0.181
  WS02006229           JUNCTION      0.00   552.28     0  02:27           0        5.47       0.158
  WS02006280           JUNCTION      0.00   204.81     0  02:27           0        1.31       0.005
  WS02006284           JUNCTION      0.10   204.80     0  02:27      0.0027        1.31       0.088
  WS02006287           JUNCTION      0.00   204.70     0  02:27           0        1.31       0.053
  WSF200               JUNCTION      0.00   559.75     0  02:32           0        5.29       0.039
  HS02004901           JUNCTION      9.37     9.37     0  02:23      0.0498      0.0501       3.647
  HS02004881           JUNCTION      4.04    40.76     0  02:26      0.0217        0.23       0.057
  HS02004876           JUNCTION      7.43    36.75     0  02:26      0.0417       0.209       0.259
  HS02004870           JUNCTION      7.54    29.42     0  02:26      0.0411       0.167       0.066
  HS02004862           JUNCTION      7.28    22.06     0  02:26      0.0469       0.126       0.137
  HS02004856           JUNCTION      5.65    14.84     0  02:26       0.031      0.0805       1.824
  HS02004852           JUNCTION      0.00     9.33     0  02:26           0      0.0496       0.109
  HS02004848           JUNCTION     15.91    15.91     0  02:26      0.0988      0.0988       0.047
  HS02004842           JUNCTION      0.00     6.79     0  02:52           0      0.0622      26.415
  HS02004837           JUNCTION     19.22    25.66     0  02:25       0.251         0.3       0.272
  HS02004830           JUNCTION      0.15    25.80     0  02:26     0.00423        0.29       0.427
  HS02004824           JUNCTION     19.28    44.91     0  02:27       0.129       0.418       0.129
  HS02004817           JUNCTION      0.60    45.51     0  02:27      0.0169       0.435       3.988
  HS02004807           JUNCTION     13.93    58.94     0  02:27      0.0757       0.494       0.884
  HS02004802           JUNCTION      0.00    59.00     0  02:28           0       0.491       0.809
  HS02004799           JUNCTION     11.15   123.20     0  02:25      0.0613       0.713       0.360
  HS02004792           JUNCTION     47.36   112.13     0  02:24       0.263       0.652       0.064
  HS02004788           JUNCTION     17.07    65.26     0  02:25       0.132        0.39       0.102
  HS02004785           JUNCTION      0.15    48.39     0  02:25     0.00423       0.259       0.188
  HS02004777           JUNCTION      0.03    48.40     0  02:24    0.000846        0.26       2.037
  HS02004770           JUNCTION     39.46    48.64     0  02:23       0.213       0.261       1.203
  HS02004480           JUNCTION      0.00   146.07     0  02:25           0       0.837       0.127
  HS02004479           JUNCTION      0.00    23.09     0  02:27           0       0.137       0.537
  HS02004478           JUNCTION      0.00   204.69     0  02:26           0        1.31       0.031
  YS02001745           JUNCTION    149.28   257.36     0  03:33        1.44        1.46       0.791
  YS02001748           JUNCTION      0.04   357.11     0  03:34     0.00127        1.45       1.615
  YS02001751           JUNCTION      0.01   404.42     0  03:01     0.00031        1.41       1.628
  YS02001754           JUNCTION      0.26   236.51     0  03:04     0.00733        1.39       1.803
  YS02001762           JUNCTION      0.00   208.82     0  03:01           0         1.5       1.418
  YS02001765           JUNCTION      0.00   205.78     0  03:01           0         1.5       1.646
  YS02001767           JUNCTION      0.54   203.90     0  03:01      0.0151        1.52       2.411
  YS02001770           JUNCTION    187.24   201.02     0  03:01        1.65        1.66       1.931
  YS02001774           JUNCTION      0.00    88.61     0  04:21           0       0.135      22.899
  YS02001779           JUNCTION      0.01    88.47     0  04:21    0.000141      0.0975      18.102
  YS02001882           JUNCTION      0.00    14.25     0  03:05           0      0.0124      18.705
  YS02001884           JUNCTION      0.00    19.84     0  02:52           0      0.0406      15.528
  YS02001759           JUNCTION    180.39   391.24     0  03:01        1.53        2.99       0.771
  YS02001887           JUNCTION    226.70   243.46     0  03:01        1.79        1.81       0.432
  YS02001890           JUNCTION      0.00   236.58     0  03:01           0        1.77       0.481
  YS02001898           JUNCTION      0.00   239.45     0  02:56           0        1.76       0.153
  YS02001901           JUNCTION      0.00   243.66     0  02:56           0        1.76       0.353
  YS02001904           JUNCTION      0.00   240.61     0  02:57           0        1.75       0.325
  YS02001907           JUNCTION      0.00   461.56     0  03:03           0        3.82       0.607
  YS02001910           JUNCTION      0.00   217.59     0  03:05           0        2.08       0.528
  YS02001915           JUNCTION    132.40   214.67     0  03:01        1.22        2.08       0.254
  YS02001918           JUNCTION      0.00    74.54     0  03:06           0       0.866       0.175
  YS02001619           JUNCTION    129.20   129.20     0  03:01        1.21        1.21       1.001
  YS02001629           JUNCTION      0.00   208.98     0  03:01           0        1.13       2.629
  YS02001641           JUNCTION      0.00   290.18     0  02:42           0        2.44       0.875
  YS02001644           JUNCTION    142.03   569.44     0  04:19        1.38        5.77       0.454
  YS02001652           JUNCTION      0.00   236.67     0  03:02           0        1.26       1.871
  YS02001655           JUNCTION      0.15   389.85     0  02:58     0.00434        1.29       1.825
  YS02001920           JUNCTION      2.87    67.64     0  03:02      0.0809       0.868       0.287
  YS02001923           JUNCTION      0.04    64.78     0  03:02     0.00106       0.788       0.052
  YS02001926           JUNCTION      0.05    64.97     0  03:01     0.00147       0.789       0.356
  YS02001929           JUNCTION     64.98    64.98     0  03:01       0.788       0.788       0.052
  YS02001658           JUNCTION      0.00   452.43     0  03:34           0        1.38       1.592
  YS02001661           JUNCTION      0.00   444.19     0  03:59           0         1.8       0.640
  YS02001664           JUNCTION    164.01   381.63     0  04:00        1.32        1.73       0.359
  YS02001622           JUNCTION      0.00   162.63     0  03:01           0         1.2       2.710
  YS02001633           JUNCTION    144.48   289.26     0  02:42        1.43         2.5       1.305
  YS02001649           JUNCTION      0.00   646.79     0  03:02           0        4.94       0.750
  YS02001757           JUNCTION      0.00  1101.22     0  03:02           0        7.35       1.272
  YS02001895           JUNCTION      0.00   241.64     0  03:01           0        1.76       0.241
  YS02001625           JUNCTION      0.00   209.14     0  03:01           0        1.16       3.440
  YS02163301           JUNCTION      0.00   168.76     0  02:42           0        1.11       2.228
  YS02163601           JUNCTION      0.11   290.10     0  02:42      0.0031        2.47       1.235
  YS02164001           JUNCTION      0.00   290.18     0  02:42           0        2.45       0.834
  YS02001647           JUNCTION      0.00   422.01     0  03:01           0        4.11       0.695
  YSB1154              JUNCTION     13.22    13.22     0  02:24      0.0743      0.0752       1.964
  YSB6556              JUNCTION      0.00    13.14     0  02:25           0      0.0759       1.671
  YSB1174              JUNCTION     10.23    10.23     0  02:22       0.054      0.0546       2.413
  YSB1171              JUNCTION      0.00    23.08     0  02:25           0       0.136       4.884
  YS02006553           JUNCTION      0.00   444.54     0  02:55           0        3.81       0.396
  YS02006561           JUNCTION      0.00   681.46     0  03:02           0        5.39      -0.000
  YS02006556           JUNCTION      0.00   445.75     0  03:05           0        3.81       0.284
  YS02006558           JUNCTION    197.15   672.12     0  03:02        1.63        5.42       0.103
  YS02001783           JUNCTION      0.00   645.06     0  02:57           0        5.39       0.034
  YS02001784           JUNCTION      1.06   645.49     0  02:57      0.0299        5.42       0.055
  YS02001786           JUNCTION      0.06   644.89     0  02:57     0.00159        5.42       0.051
  YS02001788           JUNCTION      0.07   646.50     0  02:57       0.002        5.42       0.028
  YS02001790           JUNCTION      0.15   647.96     0  02:57     0.00437        5.42       0.039
  YS02001791           JUNCTION      0.00   647.85     0  02:57           0        5.42       0.019
  YS02001793           JUNCTION      0.00   683.85     0  02:51           0        5.42       0.004
  WS02004139           JUNCTION      0.32   191.11     0  00:00     0.00905        5.36       0.590
  WSC                  OUTFALL       0.00   775.24     0  02:36           0        11.2       0.000
  3                    OUTFALL       0.00   250.55     0  00:00           0        2.46       0.000
  4                    OUTFALL       0.00   164.75     0  02:28           0       0.636       0.000
  5                    OUTFALL       0.00     0.00     0  00:00           0           0       0.000 ltr
  JK-storage           STORAGE       0.00   989.85     0  02:50           0        5.57      -0.491
  CC-storage           STORAGE       0.00  1101.23     0  03:02           0        5.68      -0.912
  XR-storage           STORAGE     442.93   442.93     0  03:01        8.07        8.67      -0.001
  
  
  **********************
  Node Surcharge Summary
  **********************
  
  Surcharging occurs when water rises above the top of the highest conduit.
  ---------------------------------------------------------------------
                                               Max. Height   Min. Depth
                                   Hours       Above Crown    Below Rim
  Node                 Type      Surcharged         Meters       Meters
  ---------------------------------------------------------------------
  WS02006109           JUNCTION        1.32          0.168        1.652
  WS02006110           JUNCTION        0.99          0.024        1.826
  WS02006112           JUNCTION        1.12          0.111        1.569
  WS02006232           JUNCTION        1.27          0.140        1.340
  WS02006234           JUNCTION        1.13          0.057        1.183
  WS02006235           JUNCTION        1.21          0.098        1.192
  WS02006238           JUNCTION        1.23          0.116        1.314
  WS02006240           JUNCTION        1.12          0.045        1.345
  WS02006242           JUNCTION        1.18          0.090        0.730
  WS02006243           JUNCTION        0.16          0.002        0.768
  WS02006239           JUNCTION        1.16          0.066        1.224
  WS02006252           JUNCTION        1.26          0.193        0.907
  WS02006228           JUNCTION        1.32          0.200        2.000
  YS02001748           JUNCTION        4.05          0.232        0.958
  YS02001751           JUNCTION        4.41          0.933        0.267
  YS02001754           JUNCTION        5.04          0.949        0.201
  YS02001762           JUNCTION        5.50          1.013        0.137
  YS02001765           JUNCTION        5.38          0.961        0.139
  YS02001767           JUNCTION        5.28          0.914        0.116
  YS02001770           JUNCTION        5.26          0.868        0.052
  YS02001774           JUNCTION        5.48          0.965        0.085
  YS02001779           JUNCTION        5.02          0.680        0.000
  YS02001759           JUNCTION        5.53          1.049        0.161
  YS02001907           JUNCTION        0.29          0.049        0.901
  YS02001619           JUNCTION        4.33          0.610        0.000
  YS02001629           JUNCTION        4.36          0.470        0.000
  YS02001641           JUNCTION        5.47          0.938        0.162
  YS02001644           JUNCTION        5.48          0.920        0.000
  YS02001652           JUNCTION        5.07          1.104        0.026
  YS02001655           JUNCTION        4.51          1.200        0.000
  YS02001658           JUNCTION        4.08          0.885        0.415
  YS02001661           JUNCTION        0.04          0.664        0.726
  YS02001622           JUNCTION        4.40          0.568        0.052
  YS02001633           JUNCTION        5.37          0.926        0.134
  YS02001649           JUNCTION        5.50          1.050        0.000
  YS02001757           JUNCTION        5.64          1.157        0.053
  YS02001625           JUNCTION        5.16          0.780        0.000
  YS02163301           JUNCTION        5.25          0.883        0.147
  YS02163601           JUNCTION        5.51          0.990        0.090
  YS02164001           JUNCTION        5.40          0.922        0.178
  YS02001647           JUNCTION        5.11          0.796        0.104
  YS02006553           JUNCTION        0.39          0.051        1.139
  YS02001783           JUNCTION        0.15          0.414        1.186
  YS02001784           JUNCTION        0.27          0.504        0.986
  YS02001786           JUNCTION        0.16          0.746        0.684
  YS02001788           JUNCTION        0.11          0.427        1.053
  YS02001790           JUNCTION        1.55          0.627        0.530
  YS02001791           JUNCTION        1.68          0.746        1.174
  YS02001793           JUNCTION        1.89          1.696        0.904
  
  
  *********************
  Node Flooding Summary
  *********************
  
  Flooding refers to all water that overflows a node, whether it ponds or not.
  --------------------------------------------------------------------------
                                                             Total   Maximum
                                 Maximum   Time of Max       Flood    Ponded
                        Hours       Rate    Occurrence      Volume     Depth
  Node                 Flooded       LPS   days hr:min    10^6 ltr    Meters
  --------------------------------------------------------------------------
  YS02001779              1.33     88.40      0  04:21       0.072     0.000
  YS02001619              0.01     18.92      0  03:35       0.000     0.000
  YS02001629              0.01      8.49      0  03:44       0.000     0.000
  YS02001644              3.85    569.43      0  04:19       3.578     0.000
  YS02001655              0.01    197.92      0  03:11       0.001     0.000
  YS02001649              0.01     13.44      0  04:02       0.000     0.000
  YS02001625              0.02     12.54      0  03:43       0.000     0.000
  JK-storage              1.23    348.02      0  02:57       0.677     0.000
  XR-storage              5.48    252.92      0  03:01       2.382     0.000
  
  
  **********************
  Storage Volume Summary
  **********************
  
  --------------------------------------------------------------------------------------------------
                         Average     Avg  Evap Exfil       Maximum     Max    Time of Max    Maximum
                          Volume    Pcnt  Pcnt  Pcnt        Volume    Pcnt     Occurrence    Outflow
  Storage Unit           1000 m3    Full  Loss  Loss       1000 m3    Full    days hr:min        LPS
  --------------------------------------------------------------------------------------------------
  JK-storage               0.151      52     0     0         0.291     100       0  02:56     417.10
  CC-storage               2.280      15     0     0         3.855      25       0  04:14     400.00
  XR-storage               0.890      96     0     0         0.926     100       0  02:21     190.00
  
  
  ***********************
  Outfall Loading Summary
  ***********************
  
  -----------------------------------------------------------
                         Flow       Avg       Max       Total
                         Freq      Flow      Flow      Volume
  Outfall Node           Pcnt       LPS       LPS    10^6 ltr
  -----------------------------------------------------------
  WSC                   99.99    474.93    775.24      11.166
  3                     83.74    171.29    250.55       2.455
  4                     27.96    140.97    164.75       0.636
  5                      0.00      0.00      0.00       0.000
  -----------------------------------------------------------
  System                52.92    787.19   1175.11      14.257
  
  
  ********************
  Link Flow Summary
  ********************
  
  -----------------------------------------------------------------------------
                                 Maximum  Time of Max   Maximum    Max/    Max/
                                  |Flow|   Occurrence   |Veloc|    Full    Full
  Link                 Type          LPS  days hr:min     m/sec    Flow   Depth
  -----------------------------------------------------------------------------
  WS02003066WSF200     CONDUIT    559.75     0  02:32      2.76    0.09    0.24
  WS02006287WS02006284 CONDUIT    204.71     0  02:27      1.62    0.09    0.22
  WS02006284WS02006280 CONDUIT    204.81     0  02:27      1.86    0.09    0.20
  WS02006280WS02006229 CONDUIT    204.81     0  02:27      2.99    0.04    0.14
  WS02006229WS02006228 CONDUIT    552.37     0  02:27      1.10    1.83    1.00
  WS02006256WS02006235 CONDUIT    166.25     0  00:01      2.58    1.76    1.00
  WS02006253WS02006251 CONDUIT     41.69     0  02:26      0.43    0.13    0.96
  WS02006252WS02006251 CONDUIT    400.33     0  03:01      3.19    1.47    1.00
  WS02006251WS02006249 CONDUIT    441.76     0  02:27      1.23    1.27    0.93
  WS02006249WS02006248 CONDUIT    370.59     0  02:02      1.20    2.03    0.88
  WS02006248WS02006247 CONDUIT    365.35     0  02:02      1.17    0.80    0.93
  WS02006247WS02006245 CONDUIT    359.23     0  02:02      1.14    2.85    0.97
  WS02006245WS02006243 CONDUIT    351.63     0  02:02      1.18    1.04    0.99
  WS02006243WS02006242 CONDUIT    338.62     0  02:03      1.02    0.72    1.00
  WS02006242WS02006240 CONDUIT    324.72     0  02:03      0.91    1.29    1.00
  WS02006240WS02006239 CONDUIT    306.53     0  02:03      0.89    0.96    1.00
  WS02006239WS02006238 CONDUIT    294.09     0  02:04      0.77    0.94    1.00
  WS02006238WS02006235 CONDUIT    291.07     0  02:06      1.25    0.65    1.00
  WS02006235WS02006234 CONDUIT    366.54     0  02:03      1.03    3.87    1.00
  WS02006234WS02006232 CONDUIT    360.85     0  03:11      1.13    0.73    1.00
  WS02006232WS02006231 CONDUIT    360.92     0  03:11      0.95    0.76    1.00
  WS02006231WS02006230 CONDUIT    362.27     0  03:11      1.13    5.50    0.97
  WS02006230WS02006229 CONDUIT    374.59     0  03:12      0.97    8.34    1.00
  WS02006228WS02006109 CONDUIT    552.37     0  02:27      1.10    2.41    1.00
  WS02006116WS02004401 CONDUIT    560.95     0  02:27      0.78    0.77    0.86
  WS02006115WS02006116 CONDUIT    563.41     0  02:27      0.88    0.72    0.78
  WS02006113WS02006111 CONDUIT    576.37     0  02:28      2.49    0.69    0.47
  WS02006112WS02006115 CONDUIT    576.77     0  02:28      0.79    0.34    0.88
  WS02006111WS02006112 CONDUIT    559.60     0  02:28      1.55    0.27    0.68
  WS02006110WS02006113 CONDUIT    554.12     0  02:28      1.30    0.50    0.79
  WS02006109WS02006110 CONDUIT    553.57     0  02:27      1.10    1.06    1.00
  WS02004411WS02004412 CONDUIT    559.78     0  02:31      0.94    0.80    0.71
  WS02004401WS02004402 CONDUIT    560.27     0  02:27      0.77    0.67    0.88
  WS02004413WS02003067 CONDUIT    559.75     0  02:32      1.14    0.24    0.60
  WS02004412WS02004413 CONDUIT    559.76     0  02:32      0.84    0.37    0.79
  WS02004410WS02004411 CONDUIT    559.82     0  02:31      0.95    0.76    0.70
  WS02004409WS02004410 CONDUIT    559.88     0  02:30      0.97    0.72    0.69
  WS02004407WS02004409 CONDUIT    560.01     0  02:30      1.47    0.20    0.49
  WS02004406WS02004407 CONDUIT    560.04     0  02:30      1.06    0.25    0.64
  WS02004405WS02004406 CONDUIT    560.21     0  02:29      0.72    1.11    0.97
  WS02004404WS02004405 CONDUIT    560.15     0  02:29      0.84    5.49    0.97
  WS02004403WS02004404 CONDUIT    560.11     0  02:30      0.74    0.40    0.94
  WS02004402WS02004403 CONDUIT    560.04     0  02:29      0.75    0.80    0.90
  WS02004139WS02001211 CONDUIT    191.99     0  03:32      0.69    0.24    0.47
  WS02004138WS02004139 CONDUIT    190.79     0  00:00      2.94    0.04    0.34
  WS02003067WS02003066 CONDUIT    559.75     0  02:32      1.23    0.18    0.42
  WS02001213WS02003059 CONDUIT    206.62     0  03:33      0.65    0.34    0.68
  WS02001212WS02001213 CONDUIT    202.94     0  03:33      1.04    0.31    0.36
  WS02001211WS02001212 CONDUIT    201.29     0  03:32      0.54    0.15    0.52
  WS02003072WS02003073 CONDUIT    773.42     0  02:35      1.61    1.67    0.44
  WS02003069WS02003072 CONDUIT    773.42     0  02:34      1.52    0.37    0.46
  WS02003060WS02003069 CONDUIT    773.12     0  02:34      1.78    0.30    0.41
  WS02003059WS02003060 CONDUIT    211.58     0  03:33      0.67    0.14    0.59
  HS02004901HS02004770 CONDUIT      9.22     0  02:24      0.05    0.03    0.31
  HS02004876HS02004881 CONDUIT     36.81     0  02:26      0.59    0.39    0.09
  HS02004870HS02004876 CONDUIT     29.40     0  02:26      0.41    0.02    0.10
  HS02004842HS02004848 CONDUIT      6.79     0  02:52      0.04    0.00    0.28
  HS02004837HS02004842 CONDUIT      7.01     0  03:02      0.41    0.00    0.29
  HS02004830HS02004837 CONDUIT     25.65     0  02:26      0.46    0.03    0.08
  HS02004824HS02004830 CONDUIT     25.79     0  02:27      0.49    0.03    0.08
  HS02004817HS02004824 CONDUIT     44.91     0  02:27      0.17    0.02    0.41
  HS02004770HS02004777 CONDUIT     48.37     0  02:24      0.21    0.09    0.33
  HS02004799HS02004480 CONDUIT    123.11     0  02:25      0.58    0.16    0.31
  HS02004792HS02004799 CONDUIT    112.10     0  02:25      0.66    0.07    0.24
  HS02004788HS02004792 CONDUIT     65.23     0  02:26      0.81    0.04    0.11
  HS02004785HS02004788 CONDUIT     48.34     0  02:26      0.49    0.36    0.14
  HS02004777HS02004785 CONDUIT     48.24     0  02:25      0.26    0.06    0.26
  HS02004480HS02004478 CONDUIT    146.06     0  02:26      0.94    0.62    0.22
  HS02004479HS02004480 CONDUIT     23.22     0  02:27      0.27    0.02    0.30
  HS02004862HS02004870 CONDUIT     22.03     0  02:27      0.49    0.02    0.06
  HS02004848HS02004852 CONDUIT      9.33     0  02:26      0.33    0.01    0.04
  HS02004856HS02004862 CONDUIT     14.82     0  02:26      0.35    0.01    0.06
  HS02004852HS02004856 CONDUIT      9.30     0  02:27      0.14    0.01    0.10
  HS02004802HS02004478 CONDUIT     59.19     0  02:29      0.33    0.05    0.26
  HS02004478WS02006287 CONDUIT    204.70     0  02:27      1.31    0.06    0.17
  HS02004817HS02004807 CONDUIT     45.68     0  02:29      0.13    0.03    0.52
  HS02004807HS02004802 CONDUIT     59.00     0  02:28      0.28    0.11    0.31
  YS02001759YS02001757 CONDUIT    393.03     0  03:01      0.50    0.28    1.00
  YS02001762YS02001759 CONDUIT    211.54     0  03:01      0.27    0.24    1.00
  YS02001765YS02001762 CONDUIT    208.82     0  03:01      0.28    0.20    1.00
  YS02001770YS02001767 CONDUIT    203.36     0  03:01      0.26    0.81    1.00
  YS02001774YS02001770 CONDUIT     88.61     0  04:21      0.22    0.06    1.00
  YS02001779YS02001774 CONDUIT     88.46     0  04:21      0.11    0.04    1.00
  YS02001649YS02001757 CONDUIT    646.89     0  03:02      0.82    0.39    1.00
  YS02001767YS02001765 CONDUIT    205.78     0  03:01      0.30    0.26    1.00
  YS02006561YS02001783 CONDUIT    645.06     0  02:57      2.10    0.33    0.74
  YS02001783YS02001784 CONDUIT    644.43     0  02:57      1.53    0.89    1.00
  YS02001784YS02001785 CONDUIT    644.83     0  02:57      1.62    1.50    1.00
  YS02001788YS02001790 CONDUIT    647.81     0  02:57      2.16    0.48    1.00
  YS02001790YS02001791 CONDUIT    647.85     0  02:57      2.56    0.70    1.00
  YS02001791YS02001793 CONDUIT    683.85     0  02:51      5.19    0.29    1.00
  YS02001910YS02001907 CONDUIT    218.80     0  02:55      0.49    0.12    0.91
  YS02001786YS02001788 CONDUIT    646.43     0  02:57      2.11    1.25    1.00
  YS02001915YS02001910 CONDUIT    217.59     0  03:05      0.55    0.11    0.71
  YS02001918YS02001915 CONDUIT     86.75     0  03:06      0.44    0.05    0.43
  YS02001923YS02001920 CONDUIT     64.77     0  03:02      0.57    0.03    0.22
  YS02001926YS02001923 CONDUIT     64.74     0  03:02      0.66    0.09    0.18
  YS02001929YS02001926 CONDUIT     64.92     0  03:01      0.71    0.03    0.17
  YS02001920YS02001918 CONDUIT     74.54     0  03:06      0.57    0.07    0.29
  YS02001629YS02163301 CONDUIT    168.76     0  02:42      0.21    0.21    1.00
  YS02001619YS02001622 CONDUIT    162.63     0  03:01      0.57    0.24    1.00
  YS02001622YS02001625 CONDUIT    209.14     0  03:01      0.31    0.11    1.00
  YS02001625YS02001629 CONDUIT    208.98     0  03:01      0.27    0.10    1.00
  YS02163301YS02001633 CONDUIT    170.20     0  02:42      0.22    0.16    1.00
  YS02163601YS02164001 CONDUIT    290.18     0  02:42      0.37    0.26    1.00
  YS02164001YS02001641 CONDUIT    290.18     0  02:42      0.37    0.40    1.00
  YS02001641YS02001644 CONDUIT    290.17     0  02:42      0.37    0.94    1.00
  YS02001647YS02001649 CONDUIT    420.36     0  03:02      0.54    0.22    1.00
  YS02006553YS02006556 CONDUIT    445.75     0  03:05      0.57    0.38    0.99
  YS02006556YS02006558 CONDUIT    484.53     0  03:07      0.62    0.38    1.00
  YSB6556YSB1171       CONDUIT     13.19     0  02:28      0.06    0.01    0.57
  YS02001907YS02006553 CONDUIT    444.54     0  02:55      0.49    0.52    1.00
  YS02006558YS02006561 CONDUIT    681.46     0  03:02      3.17    1.51    0.76
  YS02001633YS02163601 CONDUIT    289.99     0  02:42      0.37    0.30    1.00
  YS02001644YS02001647 CONDUIT    422.01     0  03:01      0.54    0.25    1.00
  YS02001745YS02001748 CONDUIT    357.07     0  03:34      1.42    0.14    0.93
  YS02001748YS02001751 CONDUIT    404.41     0  03:01      1.00    0.20    1.00
  YS02001751YS02001754 CONDUIT    236.25     0  03:04      0.86    0.11    1.00
  YS02001754YS02001757 CONDUIT    238.71     0  03:04      0.33    0.10    1.00
  YS02001882YS02001884 CONDUIT     15.07     0  02:58      0.09    0.02    0.65
  YS02001884YS02001887 CONDUIT     19.84     0  02:52      0.05    0.03    0.74
  YS02001890YS02001895 CONDUIT    241.64     0  03:01      0.41    0.11    0.71
  YS02001895YS02001898 CONDUIT    239.45     0  02:56      0.53    0.42    0.57
  YS02001898YS02001901 CONDUIT    243.66     0  02:56      0.46    0.16    0.66
  YS02001901YS02001904 CONDUIT    240.61     0  02:57      0.42    0.37    0.70
  YS02001904YS02001907 CONDUIT    253.35     0  03:03      0.36    0.09    0.85
  YS02001887YS02001890 CONDUIT    236.58     0  03:01      0.36    0.40    0.79
  YS02001652YS02001649 CONDUIT    237.91     0  03:02      0.56    0.12    1.00
  YS02001655YS02001652 CONDUIT    236.67     0  03:02      0.91    0.11    1.00
  YS02001658YS02001655 CONDUIT    389.70     0  02:58      1.15    0.17    1.00
  YS02001661YS02001658 CONDUIT    452.43     0  03:34      1.49    0.18    1.00
  YS02001664YS02001661 CONDUIT    444.19     0  03:59      1.44    0.14    0.71
  YSB1154YSB6556       CONDUIT     13.14     0  02:25      0.16    0.02    0.46
  YSB1174YSB1171       CONDUIT     10.08     0  02:23      0.04    0.02    0.57
  YSB1171HS02004479    CONDUIT     23.09     0  02:27      0.54    0.02    0.44
  HS02004881HS02006253 CONDUIT     40.75     0  02:26      1.47    0.01    0.27
  YS02001793JiankangQianchi CONDUIT    989.85     0  02:50     13.02    0.08    1.00
  YS02001757CaochengTiaoxuchi CONDUIT   1101.23     0  03:02      2.25    0.48    1.00
  WSF200WS02003060     CONDUIT    559.74     0  02:32      1.77    0.12    0.32
  1                    CONDUIT    775.24     0  02:36      3.10    0.27    0.35
  2                    CONDUIT    164.75     0  02:28      5.55    0.39    0.44
  3                    CONDUIT    250.55     0  00:00      8.26    0.40    0.46
  4                    CONDUIT      0.00     0  00:00      0.00    0.00    0.00
  CC-Pump-1            PUMP       200.00     0  02:01              1.00
  CC-Pump-2            PUMP       200.00     0  02:01              1.00
  JK-Pump-1            PUMP         0.00     0  00:00              0.00
  JK-Pump-2            PUMP       300.00     0  00:00              1.00
  XR-Pump-1            PUMP        95.00     0  03:20              1.00
  XR-Pump-2            PUMP        95.00     0  03:20              1.00
  XR-Pump-3            PUMP        95.00     0  00:00              1.00
  XR-Pump-4            PUMP        95.00     0  00:00              1.00
  
  
  ***************************
  Flow Classification Summary
  ***************************
  
  -------------------------------------------------------------------------------------
                      Adjusted    ---------- Fraction of Time in Flow Class ---------- 
                       /Actual         Up    Down  Sub   Sup   Up    Down  Norm  Inlet 
  Conduit               Length    Dry  Dry   Dry   Crit  Crit  Crit  Crit  Ltd   Ctrl  
  -------------------------------------------------------------------------------------
  WS02003066WSF200        1.00   0.08  0.00  0.00  0.00  0.92  0.00  0.00  0.62  0.00
  WS02006287WS02006284    1.00   0.05  0.01  0.00  0.49  0.44  0.00  0.00  0.77  0.00
  WS02006284WS02006280    1.00   0.06  0.00  0.00  0.00  0.00  0.00  0.94  0.00  0.00
  WS02006280WS02006229    1.00   0.06  0.00  0.00  0.00  0.00  0.00  0.94  0.00  0.00
  WS02006229WS02006228    1.00   0.00  0.00  0.00  0.98  0.00  0.00  0.02  0.00  0.00
  WS02006256WS02006235    1.00   0.00  0.00  0.00  1.00  0.00  0.00  0.00  0.00  0.00
  WS02006253WS02006251    1.00   0.04  0.02  0.00  0.94  0.00  0.01  0.00  0.00  0.00
  WS02006252WS02006251    1.00   0.10  0.00  0.00  0.00  0.00  0.90  0.00  0.00  0.00
  WS02006251WS02006249    1.00   0.00  0.00  0.00  1.00  0.00  0.00  0.00  0.79  0.00
  WS02006249WS02006248    1.00   0.00  0.03  0.00  0.33  0.00  0.64  0.00  0.00  0.00
  WS02006248WS02006247    1.00   0.03  0.00  0.00  0.97  0.00  0.00  0.00  0.67  0.00
  WS02006247WS02006245    1.00   0.03  0.00  0.00  0.97  0.00  0.00  0.00  0.00  0.00
  WS02006245WS02006243    1.00   0.02  0.01  0.00  0.93  0.00  0.00  0.05  0.17  0.00
  WS02006243WS02006242    1.00   0.01  0.01  0.00  0.99  0.00  0.00  0.00  0.21  0.00
  WS02006242WS02006240    1.00   0.01  0.00  0.00  0.99  0.00  0.00  0.00  0.00  0.00
  WS02006240WS02006239    1.00   0.00  0.00  0.00  0.95  0.00  0.00  0.04  0.01  0.00
  WS02006239WS02006238    1.00   0.00  0.00  0.00  1.00  0.00  0.00  0.00  0.02  0.00
  WS02006238WS02006235    1.00   0.00  0.00  0.00  1.00  0.00  0.00  0.00  0.00  0.00
  WS02006235WS02006234    1.00   0.00  0.00  0.00  0.95  0.00  0.05  0.00  0.00  0.00
  WS02006234WS02006232    1.00   0.00  0.00  0.00  1.00  0.00  0.00  0.00  0.11  0.00
  WS02006232WS02006231    1.00   0.00  0.00  0.00  0.99  0.00  0.01  0.00  0.00  0.00
  WS02006231WS02006230    1.00   0.00  0.00  0.00  0.34  0.00  0.66  0.00  0.00  0.00
  WS02006230WS02006229    1.00   0.00  0.00  0.00  0.98  0.00  0.00  0.02  0.01  0.00
  WS02006228WS02006109    1.00   0.00  0.00  0.00  0.99  0.00  0.00  0.00  0.00  0.00
  WS02006116WS02004401    1.00   0.03  0.00  0.00  0.97  0.00  0.00  0.00  0.00  0.00
  WS02006115WS02006116    1.00   0.03  0.00  0.00  0.96  0.00  0.00  0.01  0.00  0.00
  WS02006113WS02006111    1.00   0.03  0.00  0.00  0.00  0.97  0.00  0.00  0.17  0.00
  WS02006112WS02006115    1.00   0.03  0.00  0.00  0.96  0.00  0.00  0.00  0.00  0.00
  WS02006111WS02006112    1.00   0.03  0.00  0.00  0.97  0.00  0.00  0.00  0.98  0.00
  WS02006110WS02006113    1.00   0.02  0.01  0.00  0.97  0.00  0.00  0.00  0.00  0.00
  WS02006109WS02006110    1.00   0.00  0.01  0.00  0.98  0.00  0.01  0.00  0.00  0.00
  WS02004411WS02004412    1.00   0.05  0.00  0.00  0.95  0.00  0.00  0.00  0.00  0.00
  WS02004401WS02004402    1.00   0.03  0.00  0.00  0.97  0.00  0.00  0.00  0.00  0.00
  WS02004413WS02003067    1.00   0.05  0.02  0.00  0.00  0.00  0.92  0.00  0.00  0.00
  WS02004412WS02004413    1.00   0.05  0.00  0.00  0.95  0.00  0.00  0.00  0.03  0.00
  WS02004410WS02004411    1.00   0.05  0.00  0.00  0.95  0.00  0.00  0.00  0.04  0.00
  WS02004409WS02004410    1.00   0.05  0.00  0.00  0.95  0.00  0.00  0.00  0.03  0.00
  WS02004407WS02004409    1.00   0.05  0.00  0.00  0.95  0.00  0.00  0.00  0.89  0.00
  WS02004406WS02004407    1.00   0.00  0.05  0.00  0.95  0.00  0.00  0.00  0.00  0.00
  WS02004405WS02004406    1.00   0.00  0.00  0.00  1.00  0.00  0.00  0.00  0.01  0.00
  WS02004404WS02004405    1.00   0.00  0.00  0.00  1.00  0.00  0.00  0.00  0.00  0.00
  WS02004403WS02004404    1.00   0.00  0.04  0.00  0.96  0.00  0.00  0.00  0.01  0.00
  WS02004402WS02004403    1.00   0.03  0.00  0.00  0.97  0.00  0.00  0.00  0.00  0.00
  WS02004139WS02001211    1.00   0.00  0.00  0.00  0.99  0.00  0.01  0.00  0.00  0.00
  WS02004138WS02004139    1.00   0.00  0.00  0.00  0.99  0.01  0.00  0.00  1.00  0.00
  WS02003067WS02003066    1.00   0.08  0.01  0.00  0.92  0.00  0.00  0.00  0.00  0.00
  WS02001213WS02003059    1.00   0.00  0.01  0.00  0.99  0.00  0.00  0.00  0.00  0.00
  WS02001212WS02001213    1.00   0.01  0.00  0.00  0.36  0.00  0.63  0.00  0.00  0.00
  WS02001211WS02001212    1.00   0.00  0.01  0.00  0.99  0.00  0.00  0.00  0.00  0.00
  WS02003072WS02003073    1.00   0.00  0.00  0.00  0.00  0.00  0.00  1.00  0.00  0.00
  WS02003069WS02003072    1.00   0.00  0.00  0.00  0.99  0.01  0.00  0.00  0.59  0.00
  WS02003060WS02003069    1.00   0.00  0.00  0.00  0.98  0.02  0.00  0.00  0.19  0.00
  WS02003059WS02003060    1.00   0.00  0.00  0.00  0.99  0.01  0.00  0.00  0.01  0.00
  HS02004901HS02004770    1.00   0.06  0.00  0.00  0.94  0.00  0.00  0.00  0.00  0.00
  HS02004876HS02004881    1.00   0.03  0.00  0.00  0.97  0.00  0.00  0.00  0.00  0.00
  HS02004870HS02004876    1.00   0.01  0.00  0.00  0.99  0.00  0.00  0.00  0.95  0.00
  HS02004842HS02004848    1.00   0.00  0.06  0.00  0.94  0.00  0.00  0.00  0.61  0.00
  HS02004837HS02004842    1.00   0.00  0.00  0.00  0.99  0.01  0.00  0.00  0.11  0.00
  HS02004830HS02004837    1.00   0.00  0.00  0.00  1.00  0.00  0.00  0.00  0.99  0.00
  HS02004824HS02004830    1.00   0.00  0.00  0.00  1.00  0.00  0.00  0.00  0.00  0.00
  HS02004817HS02004824    1.00   0.00  0.00  0.00  1.00  0.00  0.00  0.00  1.00  0.00
  HS02004770HS02004777    1.00   0.00  0.06  0.00  0.94  0.00  0.00  0.00  0.03  0.00
  HS02004799HS02004480    1.00   0.00  0.03  0.00  0.93  0.00  0.03  0.00  0.00  0.00
  HS02004792HS02004799    1.00   0.00  0.00  0.00  0.98  0.02  0.00  0.00  0.98  0.00
  HS02004788HS02004792    1.00   0.00  0.00  0.00  0.98  0.02  0.00  0.00  0.98  0.00
  HS02004785HS02004788    1.00   0.00  0.00  0.00  1.00  0.00  0.00  0.00  0.00  0.00
  HS02004777HS02004785    1.00   0.00  0.00  0.00  1.00  0.00  0.00  0.00  0.13  0.00
  HS02004480HS02004478    1.00   0.06  0.00  0.00  0.55  0.00  0.00  0.39  0.00  0.00
  HS02004479HS02004480    1.00   0.04  0.00  0.00  0.96  0.00  0.00  0.00  0.12  0.00
  HS02004862HS02004870    1.00   0.00  0.00  0.00  1.00  0.00  0.00  0.00  0.06  0.00
  HS02004848HS02004852    1.00   0.06  0.00  0.00  0.94  0.00  0.00  0.00  0.69  0.00
  HS02004856HS02004862    1.00   0.00  0.07  0.00  0.93  0.00  0.00  0.00  0.81  0.00
  HS02004852HS02004856    1.00   0.06  0.00  0.00  0.94  0.00  0.00  0.00  0.86  0.00
  HS02004802HS02004478    1.00   0.06  0.00  0.00  0.94  0.00  0.00  0.00  0.03  0.00
  HS02004478WS02006287    1.00   0.07  0.00  0.00  0.67  0.27  0.00  0.00  0.77  0.00
  HS02004817HS02004807    1.00   0.00  0.06  0.00  0.94  0.00  0.00  0.00  0.01  0.00
  HS02004807HS02004802    1.00   0.06  0.00  0.00  0.94  0.00  0.00  0.00  0.00  0.00
  YS02001759YS02001757    1.00   0.00  0.00  0.00  1.00  0.00  0.00  0.00  0.16  0.00
  YS02001762YS02001759    1.00   0.00  0.00  0.00  1.00  0.00  0.00  0.00  0.03  0.00
  YS02001765YS02001762    1.00   0.00  0.00  0.00  1.00  0.00  0.00  0.00  0.15  0.00
  YS02001770YS02001767    1.00   0.00  0.00  0.00  1.00  0.00  0.00  0.00  0.00  0.00
  YS02001774YS02001770    1.00   0.00  0.06  0.00  0.94  0.00  0.00  0.00  0.03  0.00
  YS02001779YS02001774    1.00   0.00  0.00  0.00  1.00  0.00  0.00  0.00  0.21  0.00
  YS02001649YS02001757    1.00   0.00  0.00  0.00  1.00  0.00  0.00  0.00  0.16  0.00
  YS02001767YS02001765    1.00   0.00  0.00  0.00  1.00  0.00  0.00  0.00  0.01  0.00
  YS02006561YS02001783    1.00   0.08  0.00  0.00  0.32  0.60  0.00  0.00  0.69  0.00
  YS02001783YS02001784    1.00   0.00  0.08  0.00  0.92  0.00  0.00  0.00  0.01  0.00
  YS02001784YS02001785    1.00   0.00  0.00  0.00  1.00  0.00  0.00  0.00  0.19  0.00
  YS02001788YS02001790    1.00   0.00  0.00  0.00  0.46  0.54  0.00  0.00  0.61  0.00
  YS02001790YS02001791    1.00   0.00  0.00  0.00  0.42  0.58  0.00  0.00  0.50  0.00
  YS02001791YS02001793    1.00   0.00  0.00  0.00  0.44  0.56  0.00  0.00  0.02  0.00
  YS02001910YS02001907    1.00   0.00  0.00  0.00  0.97  0.00  0.00  0.03  0.12  0.00
  YS02001786YS02001788    1.00   0.00  0.00  0.00  0.43  0.57  0.00  0.00  0.00  0.00
  YS02001915YS02001910    1.00   0.00  0.00  0.00  0.98  0.02  0.00  0.00  0.18  0.00
  YS02001918YS02001915    1.00   0.00  0.01  0.00  0.97  0.02  0.00  0.00  0.69  0.00
  YS02001923YS02001920    1.00   0.00  0.00  0.00  1.00  0.00  0.00  0.00  1.00  0.00
  YS02001926YS02001923    1.00   0.00  0.05  0.00  0.00  0.00  0.95  0.00  0.00  0.00
  YS02001929YS02001926    1.00   0.00  0.06  0.00  0.94  0.00  0.00  0.00  0.87  0.00
  YS02001920YS02001918    1.00   0.00  0.01  0.00  0.99  0.00  0.00  0.00  0.00  0.00
  YS02001629YS02163301    1.00   0.06  0.00  0.00  0.93  0.00  0.00  0.00  0.00  0.00
  YS02001619YS02001622    1.00   0.06  0.00  0.00  0.94  0.00  0.00  0.00  0.00  0.00
  YS02001622YS02001625    1.00   0.06  0.00  0.00  0.94  0.00  0.00  0.00  0.07  0.00
  YS02001625YS02001629    1.00   0.06  0.02  0.00  0.90  0.00  0.02  0.00  0.00  0.00
  YS02163301YS02001633    1.00   0.00  0.06  0.00  0.94  0.00  0.00  0.00  0.00  0.00
  YS02163601YS02164001    1.00   0.00  0.05  0.00  0.95  0.00  0.00  0.00  0.00  0.00
  YS02164001YS02001641    1.00   0.01  0.04  0.00  0.95  0.00  0.00  0.00  0.06  0.00
  YS02001641YS02001644    1.00   0.00  0.01  0.00  0.99  0.00  0.00  0.00  0.00  0.00
  YS02001647YS02001649    1.00   0.00  0.07  0.00  0.93  0.00  0.00  0.00  0.01  0.00
  YS02006553YS02006556    1.00   0.02  0.00  0.00  0.98  0.00  0.00  0.00  0.03  0.00
  YS02006556YS02006558    1.00   0.00  0.00  0.00  1.00  0.00  0.00  0.00  0.00  0.00
  YSB6556YSB1171          1.00   0.04  0.02  0.00  0.94  0.00  0.00  0.00  0.00  0.00
  YS02001907YS02006553    1.00   0.00  0.03  0.00  0.97  0.00  0.00  0.00  0.00  0.00
  YS02006558YS02006561    1.00   0.08  0.00  0.00  0.00  0.92  0.00  0.00  0.60  0.00
  YS02001633YS02163601    1.00   0.00  0.01  0.00  0.99  0.00  0.00  0.00  0.15  0.00
  YS02001644YS02001647    1.00   0.00  0.07  0.00  0.93  0.00  0.00  0.00  0.00  0.00
  YS02001745YS02001748    1.00   0.00  0.00  0.00  0.83  0.02  0.00  0.15  0.09  0.00
  YS02001748YS02001751    1.00   0.00  0.00  0.00  0.96  0.04  0.00  0.00  0.16  0.00
  YS02001751YS02001754    1.00   0.00  0.00  0.00  0.92  0.00  0.00  0.08  0.02  0.00
  YS02001754YS02001757    1.00   0.00  0.00  0.00  0.99  0.01  0.00  0.00  0.20  0.00
  YS02001882YS02001884    1.00   0.06  0.00  0.00  0.93  0.00  0.00  0.00  0.00  0.00
  YS02001884YS02001887    1.00   0.04  0.01  0.00  0.95  0.00  0.00  0.00  0.00  0.00
  YS02001890YS02001895    1.00   0.00  0.06  0.00  0.93  0.00  0.00  0.00  0.00  0.00
  YS02001895YS02001898    1.00   0.07  0.00  0.00  0.92  0.00  0.01  0.00  0.00  0.00
  YS02001898YS02001901    1.00   0.07  0.00  0.00  0.93  0.00  0.00  0.00  0.03  0.00
  YS02001901YS02001904    1.00   0.07  0.00  0.00  0.93  0.00  0.00  0.00  0.00  0.00
  YS02001904YS02001907    1.00   0.00  0.06  0.00  0.93  0.00  0.00  0.00  0.00  0.00
  YS02001887YS02001890    1.00   0.00  0.00  0.00  0.96  0.00  0.03  0.00  0.00  0.00
  YS02001652YS02001649    1.00   0.00  0.00  0.00  1.00  0.00  0.00  0.00  0.18  0.00
  YS02001655YS02001652    1.00   0.00  0.00  0.00  0.92  0.00  0.00  0.08  0.02  0.00
  YS02001658YS02001655    1.00   0.00  0.06  0.00  0.90  0.03  0.00  0.00  0.12  0.00
  YS02001661YS02001658    1.00   0.06  0.00  0.00  0.82  0.11  0.00  0.00  0.18  0.00
  YS02001664YS02001661    1.00   0.06  0.00  0.00  0.75  0.19  0.00  0.00  0.33  0.00
  YSB1154YSB6556          1.00   0.06  0.00  0.00  0.94  0.00  0.00  0.00  0.02  0.00
  YSB1174YSB1171          1.00   0.04  0.01  0.00  0.95  0.00  0.00  0.00  0.00  0.00
  YSB1171HS02004479       1.00   0.04  0.00  0.00  0.96  0.00  0.00  0.00  0.10  0.00
  HS02004881HS02006253    1.00   0.04  0.00  0.00  0.30  0.00  0.00  0.66  0.17  0.00
  YS02001793JiankangQianchi    1.00   0.00  0.00  0.00  0.66  0.33  0.00  0.00  0.15  0.00
  YS02001757CaochengTiaoxuchi    1.00   0.00  0.10  0.00  0.88  0.02  0.00  0.00  0.00  0.00
  WSF200WS02003060        1.00   0.00  0.08  0.00  0.61  0.30  0.00  0.00  0.58  0.00
  1                       1.00   0.00  0.00  0.00  0.00  1.00  0.00  0.00  0.15  0.00
  2                       1.00   0.72  0.00  0.00  0.00  0.28  0.00  0.00  0.01  0.00
  3                       1.00   0.16  0.00  0.00  0.00  0.84  0.00  0.00  0.22  0.00
  4                       1.00   1.00  0.00  0.00  0.00  0.00  0.00  0.00  0.00  0.00
  
  
  *************************
  Conduit Surcharge Summary
  *************************
  
  ----------------------------------------------------------------------------
                                                           Hours        Hours 
                         --------- Hours Full --------   Above Full   Capacity
  Conduit                Both Ends  Upstream  Dnstream   Normal Flow   Limited
  ----------------------------------------------------------------------------
  WS02006229WS02006228        1.32      1.33      1.32      1.45         1.32
  WS02006256WS02006235        5.59      5.59      6.86      4.01         0.01
  WS02006252WS02006251        1.19      1.19      1.26      1.24         0.01
  WS02006251WS02006249        0.01      0.01      0.01      1.20         0.01
  WS02006249WS02006248        0.01      0.01      0.01      1.32         0.01
  WS02006247WS02006245        0.01      0.01      0.01      1.36         0.01
  WS02006245WS02006243        0.01      0.01      0.16      0.04         0.01
  WS02006243WS02006242        0.88      0.88      1.18      0.01         0.01
  WS02006242WS02006240        1.12      1.12      1.21      1.26         0.01
  WS02006240WS02006239        1.14      1.14      1.16      0.01         0.01
  WS02006239WS02006238        1.21      1.21      1.23      0.01         0.01
  WS02006238WS02006235        1.22      1.22      1.25      0.01         0.01
  WS02006235WS02006234        1.13      1.13      1.21      5.30         0.01
  WS02006234WS02006232        1.18      1.18      1.27      0.01         0.01
  WS02006232WS02006231        0.01      0.01      1.27      0.01         0.01
  WS02006231WS02006230        0.01      0.01      0.29      6.11         0.01
  WS02006230WS02006229        1.37      1.39      1.37      6.22         1.37
  WS02006228WS02006109        1.32      1.35      1.32      1.67         1.32
  WS02006112WS02006115        0.01      0.01      1.12      0.01         0.01
  WS02006111WS02006112        0.01      0.01      1.49      0.01         0.01
  WS02006110WS02006113        0.01      0.01      1.34      0.01         0.01
  WS02006109WS02006110        0.99      0.99      1.35      1.00         0.01
  WS02004405WS02004406        0.01      0.01      0.01      1.06         0.01
  WS02004404WS02004405        0.01      0.01      0.01      5.94         0.01
  WS02003072WS02003073        0.01      0.01      0.01      1.62         0.01
  YS02001759YS02001757        5.53      5.53      5.64      0.01         0.01
  YS02001762YS02001759        5.50      5.50      5.53      0.01         0.01
  YS02001765YS02001762        5.38      5.38      5.50      0.01         0.01
  YS02001770YS02001767        5.27      5.27      5.28      0.01         0.56
  YS02001774YS02001770        5.26      5.26      5.48      0.01         0.01
  YS02001779YS02001774        5.02      5.02      5.48      0.01         0.01
  YS02001649YS02001757        5.50      5.50      5.64      0.01         0.01
  YS02001767YS02001765        5.28      5.28      5.38      0.01         0.01
  YS02006561YS02001783        0.01      0.01      0.15      0.01         0.01
  YS02001783YS02001784        0.15      0.15      0.27      0.01         0.01
  YS02001784YS02001785        0.16      0.27      0.16      1.11         0.15
  YS02001788YS02001790        0.11      0.11      1.55      0.01         0.01
  YS02001790YS02001791        1.55      1.55      1.68      0.01         0.01
  YS02001791YS02001793        1.68      1.68      1.97      0.01         0.01
  YS02001910YS02001907        0.01      0.01      0.29      0.01         0.01
  YS02001786YS02001788        0.11      0.16      0.11      0.59         0.10
  YS02001629YS02163301        5.24      5.24      5.25      0.01         0.01
  YS02001619YS02001622        4.33      4.33      4.40      0.01         0.01
  YS02001622YS02001625        4.40      4.40      5.16      0.01         0.01
  YS02001625YS02001629        4.36      4.36      5.16      0.01         0.01
  YS02163301YS02001633        5.25      5.25      5.41      0.01         0.01
  YS02163601YS02164001        5.40      5.40      5.51      0.01         0.01
  YS02164001YS02001641        5.40      5.40      5.47      0.01         0.02
  YS02001641YS02001644        5.47      5.47      5.48      0.01         0.69
  YS02001647YS02001649        5.11      5.11      5.50      0.01         0.01
  YS02006553YS02006556        0.01      0.01      0.39      0.01         0.01
  YS02006556YS02006558        0.03      0.03      0.52      0.01         0.01
  YS02001907YS02006553        1.13      1.13      1.35      0.01         0.01
  YS02006558YS02006561        0.01      0.01      0.01      0.94         0.01
  YS02001633YS02163601        5.37      5.37      5.51      0.01         0.01
  YS02001644YS02001647        5.11      5.11      5.48      0.01         0.01
  YS02001745YS02001748        0.01      0.01      4.05      0.01         0.01
  YS02001748YS02001751        4.17      4.17      4.41      0.01         0.01
  YS02001751YS02001754        4.41      4.41      5.04      0.01         0.01
  YS02001754YS02001757        5.08      5.08      5.64      0.01         0.01
  YS02001904YS02001907        0.01      0.01      0.45      0.01         0.01
  YS02001652YS02001649        5.13      5.13      5.50      0.01         0.01
  YS02001655YS02001652        4.51      4.51      5.07      0.01         0.01
  YS02001658YS02001655        4.08      4.08      4.51      0.01         0.01
  YS02001661YS02001658        0.04      0.04      4.08      0.01         0.01
  YS02001664YS02001661        0.01      0.01      0.54      0.01         0.01
  YS02001793JiankangQianchi        1.89      1.89      2.99      0.01         0.01
  YS02001757CaochengTiaoxuchi        4.17      4.17      5.64      0.01         0.01
  
  
  ***************
  Pumping Summary
  ***************
  
  ---------------------------------------------------------------------------------------------------------
                                                  Min       Avg       Max     Total     Power    % Time Off
                        Percent   Number of      Flow      Flow      Flow    Volume     Usage    Pump Curve
  Pump                 Utilized   Start-Ups       LPS       LPS       LPS  10^6 ltr     Kw-hr    Low   High
  ---------------------------------------------------------------------------------------------------------
  CC-Pump-1               18.16           1      0.00    182.32    200.00     0.925      4.10    0.0   68.8
  CC-Pump-2               18.16           1      0.00    182.32    200.00     0.925      4.10    0.0   68.8
  JK-Pump-1                0.00           0      0.00      0.00      0.00     0.000      0.00    0.0    0.0
  JK-Pump-2              100.00           1      0.00    247.96    300.00     4.919     54.20    0.0    0.0
  XR-Pump-1               59.57           1      0.00     91.91     95.00     1.567      7.11    0.0    0.0
  XR-Pump-2               59.57           1      0.00     91.91     95.00     1.567      7.11    0.0    0.0
  XR-Pump-3               42.55           1      0.00     90.56     95.00     1.112      9.60    0.0    0.0
  XR-Pump-4               42.55           1      0.00     90.56     95.00     1.112      9.60    0.0    0.0
  

  Analysis begun on:  Sun Jan  2 15:59:23 2022
  Analysis ended on:  Sun Jan  2 15:59:26 2022
  Total elapsed time: 00:00:03