
  EPA STORM WATER MANAGEMENT MODEL - VERSION 5.1 (Build 5.3.0.dev0)
  --------------------------------------------------------------

  WARNING 04: minimum elevation drop used for Conduit WS02004404WS02004405
  WARNING 03: negative offset ignored for Link YS02001904YS02001907
  
  *********************************************************
  NOTE: The summary statistics displayed in this report are
  based on results found at every computational time step,  
  not just on results from each reporting time step.
  *********************************************************
  
  ****************
  Analysis Options
  ****************
  Flow Units ............... LPS
  Process Models:
    Rainfall/Runoff ........ YES
    RDII ................... NO
    Snowmelt ............... NO
    Groundwater ............ NO
    Flow Routing ........... YES
    Ponding Allowed ........ NO
    Water Quality .......... NO
  Infiltration Method ...... HORTON
  Flow Routing Method ...... DYNWAVE
  Surcharge Method ......... EXTRAN
  Starting Date ............ 08/28/2015 08:00:00
  Ending Date .............. 08/28/2015 15:50:00
  Antecedent Dry Days ...... 8.0
  Report Time Step ......... 00:01:00
  Wet Time Step ............ 00:01:00
  Dry Time Step ............ 00:01:00
  Routing Time Step ........ 5.00 sec
  Variable Time Step ....... YES
  Maximum Trials ........... 8
  Number of Threads ........ 4
  Head Tolerance ........... 0.001500 m
  
  
  **************************        Volume         Depth
  Runoff Quantity Continuity     hectare-m            mm
  **************************     ---------       -------
  Total Precipitation ......         5.556        12.164
  Evaporation Loss .........         0.000         0.000
  Infiltration Loss ........         1.427         3.124
  Surface Runoff ...........         3.072         6.726
  Final Storage ............         1.058         2.316
  Continuity Error (%) .....        -0.016
  
  
  **************************        Volume        Volume
  Flow Routing Continuity        hectare-m      10^6 ltr
  **************************     ---------     ---------
  Dry Weather Inflow .......         0.616         6.165
  Wet Weather Inflow .......         3.071        30.709
  Groundwater Inflow .......         0.000         0.000
  RDII Inflow ..............         0.000         0.000
  External Inflow ..........         0.102         1.024
  External Outflow .........         1.747        17.468
  Flooding Loss ............         1.482        14.822
  Evaporation Loss .........         0.000         0.000
  Exfiltration Loss ........         0.000         0.000
  Initial Stored Volume ....         0.076         0.761
  Final Stored Volume ......         0.638         6.380
  Continuity Error (%) .....        -0.035
  
  
  *************************
  Highest Continuity Errors
  *************************
  Node HS02004842 (16.24%)
  Node YS02001884 (11.98%)
  Node YSB1171 (3.12%)
  Node HS02004817 (2.99%)
  Node HS02004901 (2.32%)
  
  
  ***************************
  Time-Step Critical Elements
  ***************************
  Link 3 (89.52%)
  Link WS02006280WS02006229 (2.78%)
  Link YS02001791YS02001793 (1.51%)
  Link YS02006556YS02006558 (1.06%)
  Link WS02006238WS02006235 (1.05%)
  
  
  ********************************
  Highest Flow Instability Indexes
  ********************************
  Link YS02163301YS02001633 (44)
  Link YS02163601YS02164001 (43)
  Link YS02001629YS02163301 (43)
  Link YS02001619YS02001622 (41)
  Link YS02164001YS02001641 (40)
  
  
  *************************
  Routing Time Step Summary
  *************************
  Minimum Time Step           :     0.50 sec
  Average Time Step           :     0.96 sec
  Maximum Time Step           :     5.00 sec
  Percent in Steady State     :     0.00
  Average Iterations per Step :     4.46
  Percent Not Converging      :    20.27
  
  
  ***************************
  Subcatchment Runoff Summary
  ***************************
  
  ------------------------------------------------------------------------------------------------------------------------------
                            Total      Total      Total      Total     Imperv       Perv      Total       Total     Peak  Runoff
                           Precip      Runon       Evap      Infil     Runoff     Runoff     Runoff      Runoff   Runoff   Coeff
  Subcatchment                 mm         mm         mm         mm         mm         mm         mm    10^6 ltr      LPS
  ------------------------------------------------------------------------------------------------------------------------------
  sub0                      12.16       0.00       0.00       0.85      10.05       0.00      10.05        0.01     1.91   0.826
  sub1                      12.16       0.00       0.00       1.34       9.56       0.00       9.56        0.06    14.15   0.786
  sub2                      12.16       0.00       0.00       4.50       6.75       0.00       6.75        0.06    13.75   0.555
  sub3                      12.16       0.00       0.00       4.50       6.71       0.00       6.71        0.15    32.07   0.552
  sub4                      12.16       0.00       0.00       1.34       9.40       0.00       9.40        0.20    40.20   0.773
  sub5                      12.16       0.00       0.00       0.85       9.99       0.00       9.99        0.11    25.19   0.822
  sub7                      12.16       0.00       0.00       1.09       9.81       0.00       9.81        0.03     7.55   0.807
  sub8                      12.16       0.00       0.00       1.09       9.80       0.00       9.80        0.06    14.17   0.806
  sub9                      12.16       0.00       0.00       1.09       9.80       0.00       9.80        0.05    10.64   0.806
  sub10                     12.16       0.00       0.00       0.97       9.89       0.00       9.89        0.11    24.40   0.813
  sub11                     12.16       0.00       0.00       0.97       9.91       0.00       9.91        0.12    26.15   0.815
  sub12                     12.16       0.00       0.00       1.58       9.39       0.00       9.39        0.08    19.06   0.772
  sub14                     12.16       0.00       0.00       1.09       9.80       0.00       9.80        0.09    21.02   0.805
  sub15                     12.16       0.00       0.00       3.65       7.53       0.00       7.53        0.13    29.11   0.619
  sub16                     12.16       0.00       0.00       4.01       7.23       0.00       7.23        0.08    17.47   0.594
  sub17                     12.16       0.00       0.00       3.89       7.34       0.00       7.34        0.06    14.47   0.603
  sub22                     12.16       0.00       0.00       5.23       6.14       0.00       6.14        0.39    88.27   0.505
  sub23                     12.16       0.00       0.00       4.50       6.79       0.00       6.79        0.32    73.89   0.558
  sub60                     12.16       0.00       0.00       1.46       7.71       0.00       7.71        2.34   297.17   0.634
  sub61                     12.16       0.00       0.00       2.07       7.87       0.00       7.87        2.43   359.80   0.647
  sub62                     12.16       0.00       0.00       0.97       8.55       0.00       8.55        2.63   372.87   0.703
  sub63                     12.16       0.00       0.00       3.53       6.89       0.00       6.89        2.09   327.80   0.567
  sub64                     12.16       0.00       0.00       1.82       7.40       0.00       7.40        2.25   282.66   0.608
  sub65                     12.16       0.00       0.00       1.58       7.52       0.00       7.52        2.31   287.20   0.618
  sub66                     12.16       0.00       0.00       3.53       6.36       0.00       6.36        1.95   257.27   0.523
  sub67                     12.16       0.00       0.00       0.97       9.05       0.00       9.05        2.79   452.90   0.744
  sub68                     12.16       0.00       0.00       1.70       8.28       0.00       8.28        2.55   391.99   0.681
  sub69                     12.16       0.00       0.00       1.82       8.61       0.00       8.61        2.01   355.79   0.708
  sub70                     12.16       8.79       0.00       7.03      11.43       0.10      11.53        2.64   335.00   0.550
  sub71                     12.16       0.00       0.00       0.97       8.31       0.00       8.31        1.96   263.63   0.683
  sub72                     12.16       0.00       0.00       0.85       6.56       0.00       6.56        1.34   129.40   0.540
  sub73                     12.16      11.23       0.00       7.88      12.47       0.08      12.54        2.95   300.52   0.536
  sub74                     12.16       0.00       0.00       9.12       2.57       0.00       2.57        1.03   189.59   0.211
  
  
  ******************
  Node Depth Summary
  ******************
  
  ---------------------------------------------------------------------------------
                                 Average  Maximum  Maximum  Time of Max    Reported
                                   Depth    Depth      HGL   Occurrence   Max Depth
  Node                 Type       Meters   Meters   Meters  days hr:min      Meters
  ---------------------------------------------------------------------------------
  WS02001211           JUNCTION     0.69     0.73     5.56     0  03:10        0.73
  WS02001212           JUNCTION     0.41     0.45     5.52     0  03:09        0.45
  WS02001213           JUNCTION     0.63     0.71     5.47     0  03:08        0.71
  WS02003069           JUNCTION     0.42     0.56     5.14     0  03:08        0.56
  WS02003072           JUNCTION     0.49     0.62     4.99     0  03:08        0.62
  WS02003073           JUNCTION     0.29     0.38     4.44     0  03:09        0.38
  WS02003060           JUNCTION     0.38     0.49     5.43     0  03:07        0.49
  WS02003066           JUNCTION     0.20     0.31     5.86     0  03:06        0.31
  WS02003059           JUNCTION     0.69     0.77     5.46     0  03:08        0.77
  WS02003067           JUNCTION     0.52     0.71     6.03     0  03:06        0.71
  WS02004401           JUNCTION     0.59     0.88     6.88     0  03:04        0.88
  WS02004402           JUNCTION     0.63     0.90     6.86     0  03:04        0.90
  WS02004403           JUNCTION     0.65     0.92     6.85     0  03:04        0.92
  WS02004404           JUNCTION     0.73     0.99     6.84     0  03:04        0.99
  WS02004406           JUNCTION     0.74     0.97     6.80     0  03:05        0.97
  WS02004409           JUNCTION     0.41     0.69     6.46     0  03:05        0.69
  WS02004410           JUNCTION     0.44     0.70     6.42     0  03:05        0.70
  WS02004411           JUNCTION     0.45     0.71     6.39     0  03:06        0.71
  WS02004412           JUNCTION     0.47     0.72     6.36     0  03:06        0.72
  WS02004413           JUNCTION     0.63     0.87     6.34     0  03:06        0.87
  WS02004405           JUNCTION     0.72     0.98     6.83     0  03:04        0.98
  WS02006109           JUNCTION     0.66     1.00     7.62     0  03:02        1.00
  WS02006110           JUNCTION     0.67     0.94     7.53     0  03:02        0.94
  WS02006111           JUNCTION     0.18     0.29     7.00     0  03:03        0.29
  WS02006112           JUNCTION     0.75     1.12     7.00     0  03:05        1.10
  WS02006113           JUNCTION     0.28     0.47     7.36     0  03:03        0.47
  WS02006115           JUNCTION     0.48     0.78     6.92     0  03:03        0.78
  WS02006116           JUNCTION     0.57     0.86     6.90     0  03:04        0.86
  WS02006230           JUNCTION     0.59     1.01     7.76     0  03:02        1.01
  WS02006231           JUNCTION     0.36     0.65     7.77     0  03:03        0.65
  WS02006232           JUNCTION     0.47     0.74     7.78     0  03:03        0.74
  WS02006234           JUNCTION     0.37     0.64     7.80     0  03:03        0.64
  WS02006235           JUNCTION     0.39     0.64     7.81     0  03:03        0.64
  WS02006238           JUNCTION     0.41     0.66     7.81     0  03:04        0.66
  WS02006240           JUNCTION     0.27     0.52     7.81     0  03:04        0.52
  WS02006242           JUNCTION     0.30     0.55     7.82     0  03:04        0.55
  WS02006243           JUNCTION     0.16     0.40     7.82     0  03:04        0.40
  WS02006245           JUNCTION     0.12     0.34     7.83     0  03:05        0.34
  WS02006247           JUNCTION     0.12     0.34     7.84     0  03:05        0.34
  WS02006248           JUNCTION     0.08     0.25     7.84     0  03:04        0.25
  WS02006249           JUNCTION     0.11     0.27     7.87     0  03:03        0.27
  WS02006239           JUNCTION     0.35     0.60     7.81     0  03:04        0.60
  WS02006251           JUNCTION     0.09     0.24     7.91     0  03:02        0.24
  WS02006252           JUNCTION     0.00     0.00     8.24     0  00:00        0.00
  WS02006253           JUNCTION     0.14     0.30     7.95     0  03:01        0.30
  WS02006256           JUNCTION     1.06     1.78     8.71     0  02:18        1.28
  WS02004138           JUNCTION     0.16     0.17     7.42     0  06:00        0.17
  WS02004407           JUNCTION     0.19     0.31     6.62     0  03:05        0.31
  WS02006228           JUNCTION     0.65     1.05     7.70     0  03:02        1.04
  WS02006229           JUNCTION     0.62     1.04     7.74     0  03:02        1.04
  WS02006280           JUNCTION     0.08     0.19     8.46     0  03:02        0.19
  WS02006284           JUNCTION     0.39     0.55     8.95     0  03:02        0.55
  WS02006287           JUNCTION     0.12     0.28     9.24     0  03:01        0.28
  WSF200               JUNCTION     0.18     0.32     5.55     0  03:07        0.32
  HS02004901           JUNCTION     0.14     0.28    10.10     0  03:01        0.28
  HS02004881           JUNCTION     0.01     0.04     9.07     0  03:01        0.04
  HS02004876           JUNCTION     0.05     0.12     9.15     0  03:01        0.12
  HS02004870           JUNCTION     0.02     0.06     9.35     0  03:01        0.06
  HS02004862           JUNCTION     0.03     0.07     9.46     0  03:01        0.07
  HS02004856           JUNCTION     0.09     0.13     9.55     0  03:01        0.13
  HS02004852           JUNCTION     0.01     0.05     9.56     0  03:01        0.05
  HS02004848           JUNCTION     0.01     0.05     9.65     0  03:01        0.05
  HS02004842           JUNCTION     0.34     0.38     9.65     0  03:01        0.38
  HS02004837           JUNCTION     0.03     0.07     9.65     0  03:01        0.07
  HS02004830           JUNCTION     0.05     0.08     9.55     0  03:01        0.08
  HS02004824           JUNCTION     0.03     0.06     9.46     0  03:01        0.06
  HS02004817           JUNCTION     0.46     0.60     9.44     0  03:01        0.60
  HS02004807           JUNCTION     0.14     0.27     9.44     0  03:01        0.27
  HS02004802           JUNCTION     0.18     0.30     9.43     0  03:01        0.30
  HS02004799           JUNCTION     0.15     0.33     9.54     0  03:01        0.33
  HS02004792           JUNCTION     0.04     0.14     9.66     0  03:01        0.14
  HS02004788           JUNCTION     0.03     0.10    10.00     0  03:01        0.10
  HS02004785           JUNCTION     0.06     0.17    10.07     0  03:01        0.17
  HS02004777           JUNCTION     0.17     0.30    10.10     0  03:01        0.30
  HS02004770           JUNCTION     0.14     0.27    10.10     0  03:01        0.27
  HS02004480           JUNCTION     0.10     0.26     9.50     0  03:01        0.26
  HS02004479           JUNCTION     0.14     0.30     9.50     0  03:01        0.30
  HS02004478           JUNCTION     0.08     0.18     9.41     0  03:01        0.18
  YS02001745           JUNCTION     0.71     0.90     8.42     0  03:17        0.90
  YS02001748           JUNCTION     1.11     2.27     9.35     0  02:37        1.41
  YS02001751           JUNCTION     1.29     2.16     9.04     0  02:39        1.69
  YS02001754           JUNCTION     1.55     2.10     8.71     0  02:39        1.95
  YS02001762           JUNCTION     1.75     2.05     8.45     0  02:39        2.03
  YS02001765           JUNCTION     1.71     1.99     8.44     0  02:39        1.98
  YS02001767           JUNCTION     1.67     1.94     8.43     0  03:13        1.93
  YS02001770           JUNCTION     1.66     1.94     8.44     0  02:30        1.92
  YS02001774           JUNCTION     1.73     2.01     8.43     0  02:30        1.98
  YS02001779           JUNCTION     1.47     1.68     8.37     0  02:30        1.68
  YS02001882           JUNCTION     0.62     1.63     8.34     0  02:53        1.60
  YS02001884           JUNCTION     0.72     1.72     8.34     0  02:53        1.70
  YS02001759           JUNCTION     1.79     2.08     8.44     0  03:16        2.07
  YS02001887           JUNCTION     0.80     1.80     8.34     0  02:53        1.78
  YS02001890           JUNCTION     0.82     1.81     8.32     0  02:53        1.80
  YS02001898           JUNCTION     0.59     1.56     8.30     0  02:53        1.55
  YS02001901           JUNCTION     0.71     1.67     8.28     0  03:00        1.66
  YS02001904           JUNCTION     0.69     1.64     8.27     0  02:53        1.63
  YS02001907           JUNCTION     1.02     1.96     8.25     0  02:53        1.96
  YS02001910           JUNCTION     0.81     1.78     8.29     0  02:55        1.77
  YS02001915           JUNCTION     0.60     1.58     8.30     0  02:55        1.58
  YS02001918           JUNCTION     0.33     1.27     8.34     0  02:54        1.25
  YS02001619           JUNCTION     1.26     1.61     8.54     0  02:35        1.58
  YS02001629           JUNCTION     1.61     1.85     8.40     0  02:35        1.84
  YS02001641           JUNCTION     1.71     1.98     8.42     0  02:39        1.93
  YS02001644           JUNCTION     1.71     1.92     8.35     0  02:30        1.92
  YS02001652           JUNCTION     1.56     2.16     8.76     0  02:30        1.99
  YS02001655           JUNCTION     1.32     2.20     9.05     0  02:28        1.94
  YS02001920           JUNCTION     0.42     1.34     8.35     0  02:54        1.32
  YS02001923           JUNCTION     0.25     1.11     8.37     0  02:54        1.08
  YS02001926           JUNCTION     0.29     0.92     8.36     0  02:54        0.89
  YS02001929           JUNCTION     0.17     0.70     8.39     0  02:54        0.64
  YS02001658           JUNCTION     1.05     2.30     9.44     0  02:34        1.98
  YS02001661           JUNCTION     0.82     2.46     9.86     0  02:50        1.97
  YS02001664           JUNCTION     0.37     0.57     8.50     0  02:49        0.56
  YS02001622           JUNCTION     1.28     1.62     8.52     0  02:36        1.55
  YS02001633           JUNCTION     1.71     2.02     8.47     0  02:38        1.94
  YS02001649           JUNCTION     1.76     2.05     8.44     0  02:30        2.05
  YS02001757           JUNCTION     1.89     2.21     8.47     0  02:39        2.17
  YS02001895           JUNCTION     0.58     1.56     8.31     0  02:53        1.55
  YS02001625           JUNCTION     1.57     1.78     8.38     0  02:35        1.78
  YS02163301           JUNCTION     1.64     1.93     8.45     0  02:38        1.87
  YS02163601           JUNCTION     1.76     2.08     8.47     0  02:39        1.98
  YS02164001           JUNCTION     1.69     2.00     8.46     0  02:39        1.91
  YS02001647           JUNCTION     1.55     1.85     8.46     0  02:30        1.79
  YSB1154              JUNCTION     0.28     0.45     9.51     0  03:01        0.45
  YSB6556              JUNCTION     0.17     0.34     9.51     0  03:01        0.34
  YSB1174              JUNCTION     0.23     0.40     9.51     0  03:01        0.40
  YSB1171              JUNCTION     0.44     0.60     9.51     0  03:01        0.60
  YS02006553           JUNCTION     1.02     1.96     8.25     0  02:55        1.96
  YS02006561           JUNCTION     0.37     1.08     7.74     0  02:53        1.07
  YS02006556           JUNCTION     0.99     1.92     8.23     0  02:59        1.91
  YS02006558           JUNCTION     1.03     1.96     8.23     0  02:59        1.95
  YS02001783           JUNCTION     0.61     1.48     7.62     0  02:53        1.46
  YS02001784           JUNCTION     0.62     1.43     7.49     0  02:53        1.41
  YS02001786           JUNCTION     0.55     1.26     7.29     0  02:53        1.26
  YS02001788           JUNCTION     0.47     1.13     7.11     0  02:53        1.12
  YS02001790           JUNCTION     0.57     1.29     6.94     0  03:05        1.29
  YS02001791           JUNCTION     0.52     1.28     6.75     0  02:53        1.27
  YS02001793           JUNCTION     0.84     2.50     7.33     0  02:16        1.80
  WS02004139           JUNCTION     0.64     0.67     5.58     0  03:10        0.67
  WSC                  OUTFALL      0.29     0.38     1.05     0  03:09        0.38
  3                    OUTFALL      0.13     0.22     6.22     0  02:18        0.20
  4                    OUTFALL      0.00     0.00     7.00     0  00:00        0.00
  5                    OUTFALL      0.00     0.00     5.00     0  00:00        0.00
  JK-storage           STORAGE      4.75     5.80     6.60     0  02:43        5.80
  CC-storage           STORAGE      1.11     1.41     8.41     0  03:15        1.41
  XR-storage           STORAGE      7.57     7.72     5.72     0  02:21        7.72
  
  
  *******************
  Node Inflow Summary
  *******************
  
  -------------------------------------------------------------------------------------------------
                                  Maximum  Maximum                  Lateral       Total        Flow
                                  Lateral    Total  Time of Max      Inflow      Inflow     Balance
                                   Inflow   Inflow   Occurrence      Volume      Volume       Error
  Node                 Type           LPS      LPS  days hr:min    10^6 ltr    10^6 ltr     Percent
  -------------------------------------------------------------------------------------------------
  WS02001211           JUNCTION      7.35   294.00     0  03:21       0.207        7.48       0.509
  WS02001212           JUNCTION      0.00   295.55     0  03:22           0        7.44       0.261
  WS02001213           JUNCTION      0.00   296.97     0  03:22           0        7.42       0.291
  WS02003069           JUNCTION      0.32   876.64     0  03:07     0.00902        12.5       0.172
  WS02003072           JUNCTION      0.00   876.50     0  03:08           0        12.5       0.225
  WS02003073           JUNCTION      1.82   878.25     0  03:08      0.0514        12.5       0.244
  WS02003060           JUNCTION     16.53   876.42     0  03:07       0.466        12.5       0.165
  WS02003066           JUNCTION      0.00   569.99     0  03:06           0        4.72       0.047
  WS02003059           JUNCTION      0.00   299.44     0  03:21           0         7.4       0.508
  WS02003067           JUNCTION      0.00   569.90     0  03:06           0        4.72       0.115
  WS02004401           JUNCTION      0.00   573.35     0  03:04           0        4.86       0.256
  WS02004402           JUNCTION      0.00   572.74     0  03:04           0        4.84       0.255
  WS02004403           JUNCTION      0.00   572.48     0  03:04           0        4.83       0.243
  WS02004404           JUNCTION      0.16   572.28     0  03:04     0.00457        4.82       0.207
  WS02004406           JUNCTION      0.00   572.42     0  03:04           0         4.8       0.482
  WS02004409           JUNCTION      0.00   571.84     0  03:05           0        4.78       0.118
  WS02004410           JUNCTION      0.00   571.14     0  03:05           0        4.77       0.161
  WS02004411           JUNCTION      0.00   570.70     0  03:05           0        4.76       0.185
  WS02004412           JUNCTION      0.00   570.28     0  03:06           0        4.75       0.227
  WS02004413           JUNCTION      0.00   570.08     0  03:06           0        4.74       0.379
  WS02004405           JUNCTION      0.04   572.23     0  03:04     0.00107        4.81       0.290
  WS02006109           JUNCTION      1.23   562.60     0  03:03      0.0347        4.86       0.303
  WS02006110           JUNCTION      0.00   562.54     0  03:03           0        4.85       0.269
  WS02006111           JUNCTION      0.00   587.05     0  03:03           0        4.83       0.034
  WS02006112           JUNCTION     14.47   579.31     0  03:03      0.0629        4.89       0.354
  WS02006113           JUNCTION      0.00   562.97     0  03:02           0        4.83       0.081
  WS02006115           JUNCTION      0.00   585.40     0  03:03           0        4.87       0.217
  WS02006116           JUNCTION      0.00   575.33     0  03:03           0        4.86       0.180
  WS02006230           JUNCTION     10.28   244.36     0  03:11        0.29        2.97       0.286
  WS02006231           JUNCTION      0.00   228.13     0  03:12           0        2.68       0.174
  WS02006232           JUNCTION      0.00   224.08     0  03:11           0        2.69       0.326
  WS02006234           JUNCTION      0.00   219.23     0  03:11           0        2.69       0.128
  WS02006235           JUNCTION      0.00   216.43     0  03:11           0        2.84       0.186
  WS02006238           JUNCTION      0.00   123.95     0  05:41           0        0.58       0.660
  WS02006240           JUNCTION      0.00    82.78     0  03:08           0       0.468       1.052
  WS02006242           JUNCTION      0.00    77.08     0  03:08           0       0.414       1.132
  WS02006243           JUNCTION      0.00    75.76     0  03:03           0       0.376       0.118
  WS02006245           JUNCTION      0.00    77.06     0  03:02           0       0.367       0.303
  WS02006247           JUNCTION      0.00    78.44     0  03:02           0       0.366       0.033
  WS02006248           JUNCTION      0.00    79.53     0  03:02           0       0.366      -0.027
  WS02006249           JUNCTION      0.00    80.42     0  03:01           0       0.367       0.151
  WS02006239           JUNCTION      0.00    88.40     0  03:09           0       0.526       0.848
  WS02006251           JUNCTION      0.08    80.95     0  03:01     0.00217       0.367       0.019
  WS02006252           JUNCTION      0.00     0.00     0  00:00           0           0       0.000 ltr
  WS02006253           JUNCTION      1.91    80.98     0  03:01     0.00813       0.365       0.043
  WS02006256           JUNCTION      0.00   600.00     0  02:18           0        7.34       0.119
  WS02004138           JUNCTION      0.00   285.00     0  01:44           0         7.3       0.054
  WS02004407           JUNCTION      0.00   572.04     0  03:05           0        4.78       0.052
  WS02006228           JUNCTION      0.00   561.34     0  03:03           0        4.84       0.197
  WS02006229           JUNCTION      0.00   561.00     0  03:02           0        4.85       0.204
  WS02006280           JUNCTION      0.00   375.54     0  03:02           0        1.89       0.004
  WS02006284           JUNCTION      0.10   375.54     0  03:02      0.0027        1.89       0.064
  WS02006287           JUNCTION      0.00   375.27     0  03:01           0        1.89       0.038
  WSF200               JUNCTION      0.00   570.04     0  03:06           0        4.72       0.037
  HS02004901           JUNCTION     17.47    17.47     0  03:01      0.0757      0.0759       2.380
  HS02004881           JUNCTION      7.55    79.19     0  03:01      0.0331       0.357       0.018
  HS02004876           JUNCTION     14.15    72.10     0  03:01      0.0636       0.324       0.171
  HS02004870           JUNCTION     14.17    58.27     0  03:01      0.0626       0.261       0.043
  HS02004862           JUNCTION     13.95    44.46     0  03:01      0.0685       0.198       0.089
  HS02004856           JUNCTION     10.64    30.79     0  03:01      0.0471       0.131       1.118
  HS02004852           JUNCTION      0.00    20.44     0  03:01           0       0.084       0.069
  HS02004848           JUNCTION     32.07    32.07     0  03:01       0.151       0.151       0.033
  HS02004842           JUNCTION      0.00    11.42     0  03:01           0      0.0801      19.392
  HS02004837           JUNCTION     30.75    41.91     0  03:01       0.288       0.355       0.222
  HS02004830           JUNCTION      0.15    41.84     0  03:01     0.00423       0.346       0.358
  HS02004824           JUNCTION     40.25    81.79     0  03:01       0.197       0.542       0.100
  HS02004817           JUNCTION      0.60    82.18     0  03:01      0.0169       0.558       3.079
  HS02004807           JUNCTION     26.15   107.24     0  03:01       0.115       0.657       0.656
  HS02004802           JUNCTION      0.00   106.49     0  03:01           0       0.653       0.619
  HS02004799           JUNCTION     21.02   227.51     0  03:01      0.0932        1.06       0.236
  HS02004792           JUNCTION     88.55   207.33     0  03:01       0.396       0.966       0.043
  HS02004788           JUNCTION     30.78   119.37     0  03:01       0.177       0.571       0.068
  HS02004785           JUNCTION      0.15    89.79     0  03:01     0.00423       0.396       0.125
  HS02004777           JUNCTION      0.03    90.24     0  03:01    0.000846       0.397       1.326
  HS02004770           JUNCTION     73.89    90.93     0  03:01       0.324       0.398       0.787
  HS02004480           JUNCTION      0.00   269.27     0  03:01           0        1.25       0.099
  HS02004479           JUNCTION      0.00    42.82     0  03:02           0       0.204       0.360
  HS02004478           JUNCTION      0.00   375.17     0  03:01           0        1.89       0.018
  YS02001745           JUNCTION    297.18   392.00     0  02:38        2.34        2.35       0.486
  YS02001748           JUNCTION      0.04   578.16     0  02:38     0.00127        2.34       0.981
  YS02001751           JUNCTION      0.01   314.83     0  02:30     0.00031         2.3       1.039
  YS02001754           JUNCTION      0.26   307.87     0  03:01     0.00733        2.29       1.107
  YS02001762           JUNCTION      0.00   303.34     0  02:49           0        1.68       1.268
  YS02001765           JUNCTION      0.00   303.38     0  02:49           0        1.68       1.448
  YS02001767           JUNCTION      0.54   303.43     0  02:49      0.0151        1.71       2.114
  YS02001770           JUNCTION    373.02   484.13     0  03:19        2.63         3.1       1.021
  YS02001774           JUNCTION      0.00   484.53     0  03:19           0        1.84       1.383
  YS02001779           JUNCTION      0.01   484.24     0  03:19    0.000141        1.81       0.857
  YS02001882           JUNCTION      0.00    24.16     0  02:47           0      0.0158      16.464
  YS02001884           JUNCTION      0.00    33.82     0  02:46           0      0.0505      13.608
  YS02001759           JUNCTION    359.84   599.88     0  02:49        2.43        3.62       0.636
  YS02001887           JUNCTION    453.35   453.42     0  03:01         2.8        2.83       0.299
  YS02001890           JUNCTION      0.00   453.43     0  03:01           0        2.79       0.331
  YS02001898           JUNCTION      0.00   453.48     0  03:01           0        2.77       0.115
  YS02001901           JUNCTION      0.00   453.47     0  03:01           0        2.77       0.249
  YS02001904           JUNCTION      0.00   453.50     0  03:01           0        2.77       0.230
  YS02001907           JUNCTION      0.00   880.36     0  02:59           0        6.12       0.394
  YS02001910           JUNCTION      0.00   462.08     0  02:55           0        3.37       0.348
  YS02001915           JUNCTION    263.65   462.01     0  02:55        1.96        3.39       0.181
  YS02001918           JUNCTION      0.00   224.54     0  02:55           0        1.44       0.123
  YS02001619           JUNCTION    257.27   257.27     0  03:01        1.95        1.95       0.628
  YS02001629           JUNCTION      0.00   212.61     0  02:29           0        1.62       1.794
  YS02001641           JUNCTION      0.00   410.92     0  02:46           0        3.83       0.554
  YS02001644           JUNCTION    282.70  1205.54     0  03:17        2.25        10.6       0.246
  YS02001652           JUNCTION      0.00   367.60     0  03:01           0        2.03       1.164
  YS02001655           JUNCTION      0.15   404.77     0  02:31     0.00434        2.06       1.184
  YS02001920           JUNCTION      2.87   224.70     0  02:55      0.0809        1.43       0.205
  YS02001923           JUNCTION      0.04   219.43     0  02:55     0.00106        1.34       0.047
  YS02001926           JUNCTION      0.05   187.98     0  02:54     0.00147        1.34       0.251
  YS02001929           JUNCTION    129.40   129.40     0  03:01        1.34        1.34       0.041
  YS02001658           JUNCTION      0.00   626.81     0  02:34           0         2.1       1.123
  YS02001661           JUNCTION      0.00   666.91     0  02:48           0        2.49       0.099
  YS02001664           JUNCTION    327.80   365.54     0  02:48        2.09        2.48       0.262
  YS02001622           JUNCTION      0.00   257.30     0  03:01           0        1.94       1.660
  YS02001633           JUNCTION    287.40   411.07     0  02:46        2.32        3.88       0.832
  YS02001649           JUNCTION      0.00   870.36     0  02:46           0        6.32       0.592
  YS02001757           JUNCTION      0.00  1653.57     0  02:47           0        7.29       1.282
  YS02001895           JUNCTION      0.00   453.46     0  03:01           0        2.78       0.177
  YS02001625           JUNCTION      0.00   257.36     0  03:01           0         1.9       2.062
  YS02163301           JUNCTION      0.00   199.30     0  02:32           0        1.59       1.514
  YS02163601           JUNCTION      0.11   411.24     0  02:46      0.0031        3.85       0.786
  YS02164001           JUNCTION      0.00   411.08     0  02:46           0        3.83       0.524
  YS02001647           JUNCTION      0.00   623.66     0  02:46           0        5.68       0.503
  YSB1154              JUNCTION     25.19    25.19     0  03:01       0.113       0.114       1.285
  YSB6556              JUNCTION      0.00    24.91     0  03:01           0       0.115       1.100
  YSB1174              JUNCTION     19.06    19.06     0  03:01      0.0821      0.0827       1.580
  YSB1171              JUNCTION      0.00    43.19     0  03:01           0       0.203       3.220
  YS02006553           JUNCTION      0.00   666.98     0  03:17           0         5.9       0.261
  YS02006561           JUNCTION      0.00   964.23     0  03:00           0        8.42       0.007
  YS02006556           JUNCTION      0.00   666.95     0  03:17           0        5.91       0.190
  YS02006558           JUNCTION    392.87   964.44     0  03:00        2.57        8.45       0.065
  YS02001783           JUNCTION      0.00   964.24     0  03:00           0        8.42       0.029
  YS02001784           JUNCTION      1.06   965.37     0  03:00      0.0299        8.45       0.044
  YS02001786           JUNCTION      0.06   965.27     0  03:00     0.00159        8.45       0.041
  YS02001788           JUNCTION      0.07   965.38     0  03:00       0.002        8.44       0.025
  YS02001790           JUNCTION      0.15   965.61     0  03:00     0.00437        8.45       0.030
  YS02001791           JUNCTION      0.00   965.61     0  03:00           0        8.44       0.013
  YS02001793           JUNCTION      0.00  1002.80     0  02:16           0        8.55      -0.015
  WS02004139           JUNCTION      0.32   285.32     0  01:47     0.00905        7.31       0.494
  WSC                  OUTFALL       0.00   878.14     0  03:09           0        12.5       0.000
  3                    OUTFALL       0.00   569.17     0  02:18           0        4.97       0.000
  4                    OUTFALL       0.00     0.00     0  00:00           0           0       0.000 ltr
  5                    OUTFALL       0.00     0.00     0  00:00           0           0       0.000 ltr
  JK-storage           STORAGE       0.00  1190.53     0  02:16           0         8.7       0.022
  CC-storage           STORAGE       0.00  1653.42     0  02:47           0           4       1.648
  XR-storage           STORAGE     690.11   690.11     0  03:01        9.61        10.2      -0.000
  
  
  **********************
  Node Surcharge Summary
  **********************
  
  Surcharging occurs when water rises above the top of the highest conduit.
  ---------------------------------------------------------------------
                                               Max. Height   Min. Depth
                                   Hours       Above Crown    Below Rim
  Node                 Type      Surcharged         Meters       Meters
  ---------------------------------------------------------------------
  WS02006109           JUNCTION        1.10          0.178        1.642
  WS02006110           JUNCTION        0.29          0.030        1.820
  WS02006112           JUNCTION        0.59          0.115        1.565
  WS02006232           JUNCTION        0.25          0.044        1.436
  WS02006256           JUNCTION        0.01          0.478        0.572
  WS02006228           JUNCTION        1.08          0.221        1.979
  YS02001748           JUNCTION        5.11          1.190        0.000
  YS02001751           JUNCTION        5.28          1.158        0.042
  YS02001754           JUNCTION        5.48          1.054        0.096
  YS02001762           JUNCTION        5.64          1.055        0.095
  YS02001765           JUNCTION        5.61          0.991        0.109
  YS02001767           JUNCTION        5.59          0.940        0.090
  YS02001770           JUNCTION        5.57          0.912        0.008
  YS02001774           JUNCTION        5.63          1.012        0.038
  YS02001779           JUNCTION        5.46          0.680        0.000
  YS02001882           JUNCTION        0.78          0.626        0.204
  YS02001884           JUNCTION        0.81          0.660        0.210
  YS02001759           JUNCTION        5.66          1.079        0.131
  YS02001887           JUNCTION        0.89          0.749        0.201
  YS02001890           JUNCTION        0.93          0.760        0.000
  YS02001898           JUNCTION        0.73          0.534        0.206
  YS02001901           JUNCTION        0.86          0.673        0.197
  YS02001904           JUNCTION        0.84          0.637        0.213
  YS02001907           JUNCTION        1.49          0.950        0.000
  YS02001910           JUNCTION        0.97          0.779        0.321
  YS02001915           JUNCTION        0.77          0.585        0.415
  YS02001918           JUNCTION        0.52          0.269        0.541
  YS02001619           JUNCTION        5.27          0.610        0.000
  YS02001629           JUNCTION        5.28          0.470        0.000
  YS02001641           JUNCTION        5.62          0.984        0.116
  YS02001644           JUNCTION        5.62          0.920        0.000
  YS02001652           JUNCTION        5.52          1.130        0.000
  YS02001655           JUNCTION        5.30          1.200        0.000
  YS02001920           JUNCTION        0.55          0.344        0.796
  YS02001658           JUNCTION        5.14          1.300        0.000
  YS02001661           JUNCTION        0.23          1.390        0.000
  YS02001622           JUNCTION        5.31          0.620        0.000
  YS02001633           JUNCTION        5.61          0.999        0.061
  YS02001649           JUNCTION        5.64          1.050        0.000
  YS02001757           JUNCTION        5.74          1.210        0.000
  YS02001895           JUNCTION        0.75          0.565        0.185
  YS02001625           JUNCTION        5.54          0.780        0.000
  YS02163301           JUNCTION        5.58          0.929        0.101
  YS02163601           JUNCTION        5.64          1.077        0.003
  YS02164001           JUNCTION        5.61          1.005        0.095
  YS02001647           JUNCTION        5.53          0.846        0.054
  YS02006553           JUNCTION        1.54          0.965        0.225
  YS02006561           JUNCTION        0.64          0.285        0.865
  YS02006556           JUNCTION        1.20          0.879        0.471
  YS02006558           JUNCTION        1.15          0.858        0.542
  YS02001783           JUNCTION        1.21          0.675        0.925
  YS02001784           JUNCTION        1.23          0.626        0.864
  YS02001786           JUNCTION        1.20          0.463        0.967
  YS02001788           JUNCTION        1.19          0.335        1.145
  YS02001790           JUNCTION        1.41          0.494        0.663
  YS02001791           JUNCTION        1.46          0.480        1.440
  YS02001793           JUNCTION        1.62          1.500        1.100
  
  
  *********************
  Node Flooding Summary
  *********************
  
  Flooding refers to all water that overflows a node, whether it ponds or not.
  --------------------------------------------------------------------------
                                                             Total   Maximum
                                 Maximum   Time of Max       Flood    Ponded
                        Hours       Rate    Occurrence      Volume     Depth
  Node                 Flooded       LPS   days hr:min    10^6 ltr    Meters
  --------------------------------------------------------------------------
  YS02001748              0.01    205.03      0  02:39       0.000     0.000
  YS02001779              2.84    484.22      0  03:19       1.789     0.000
  YS02001890              0.01      1.65      0  02:53       0.000     0.000
  YS02001907              0.38    301.38      0  02:59       0.206     0.000
  YS02001619              0.01     39.42      0  02:35       0.000     0.000
  YS02001629              0.01     39.57      0  02:38       0.001     0.000
  YS02001644              5.06   1205.52      0  03:17       9.383     0.000
  YS02001652              0.01     25.46      0  02:31       0.000     0.000
  YS02001655              0.01    336.32      0  02:31       0.001     0.000
  YS02001658              0.01    218.23      0  02:36       0.000     0.000
  YS02001661              0.01    183.33      0  02:53       0.001     0.000
  YS02001622              0.01     20.38      0  02:37       0.000     0.000
  YS02001649              0.10     53.39      0  02:53       0.005     0.000
  YS02001757              0.01     13.00      0  02:39       0.000     0.000
  YS02001625              0.88    169.05      0  03:01       0.252     0.000
  JK-storage              1.18    365.61      0  03:00       1.089     0.000
  XR-storage              3.97    405.09      0  03:01       2.095     0.000
  
  
  **********************
  Storage Volume Summary
  **********************
  
  --------------------------------------------------------------------------------------------------
                         Average     Avg  Evap Exfil       Maximum     Max    Time of Max    Maximum
                          Volume    Pcnt  Pcnt  Pcnt        Volume    Pcnt     Occurrence    Outflow
  Storage Unit           1000 m3    Full  Loss  Loss       1000 m3    Full    days hr:min        LPS
  --------------------------------------------------------------------------------------------------
  JK-storage               0.239      82     0     0         0.291     100       0  02:43     904.11
  CC-storage               3.091      20     0     0         3.936      25       0  03:15     113.66
  XR-storage               0.909      98     0     0         0.926     100       0  02:21     285.00
  
  
  ***********************
  Outfall Loading Summary
  ***********************
  
  -----------------------------------------------------------
                         Flow       Avg       Max       Total
                         Freq      Flow      Flow      Volume
  Outfall Node           Pcnt       LPS       LPS    10^6 ltr
  -----------------------------------------------------------
  WSC                  100.00    551.68    878.14      12.502
  3                     90.13    317.00    569.17       4.966
  4                      0.00      0.00      0.00       0.000
  5                      0.00      0.00      0.00       0.000
  -----------------------------------------------------------
  System                47.53    868.68   1358.71      17.468
  
  
  ********************
  Link Flow Summary
  ********************
  
  -----------------------------------------------------------------------------
                                 Maximum  Time of Max   Maximum    Max/    Max/
                                  |Flow|   Occurrence   |Veloc|    Full    Full
  Link                 Type          LPS  days hr:min     m/sec    Flow   Depth
  -----------------------------------------------------------------------------
  WS02003066WSF200     CONDUIT    570.04     0  03:06      2.74    0.10    0.24
  WS02006287WS02006284 CONDUIT    375.44     0  03:02      1.98    0.17    0.29
  WS02006284WS02006280 CONDUIT    375.54     0  03:02      2.22    0.16    0.27
  WS02006280WS02006229 CONDUIT    375.57     0  03:02      3.58    0.08    0.19
  WS02006229WS02006228 CONDUIT    561.34     0  03:03      1.12    1.86    1.00
  WS02006256WS02006235 CONDUIT    166.35     0  07:23      2.50    1.76    1.00
  WS02006253WS02006251 CONDUIT     80.87     0  03:01      0.61    0.24    0.38
  WS02006252WS02006251 CONDUIT      0.00     0  00:00      0.00    0.00    0.00
  WS02006251WS02006249 CONDUIT     80.42     0  03:01      0.64    0.23    0.36
  WS02006249WS02006248 CONDUIT     79.53     0  03:02      0.71    0.44    0.36
  WS02006248WS02006247 CONDUIT     78.44     0  03:02      0.65    0.17    0.41
  WS02006247WS02006245 CONDUIT     77.06     0  03:02      0.58    0.61    0.48
  WS02006245WS02006243 CONDUIT     75.76     0  03:03      0.69    0.22    0.53
  WS02006243WS02006242 CONDUIT     77.08     0  03:08      0.54    0.16    0.66
  WS02006242WS02006240 CONDUIT     82.78     0  03:08      0.50    0.33    0.76
  WS02006240WS02006239 CONDUIT     88.40     0  03:09      0.62    0.28    0.77
  WS02006239WS02006238 CONDUIT     93.11     0  03:09      0.65    0.30    0.89
  WS02006238WS02006235 CONDUIT    119.30     0  06:23      0.97    0.27    0.93
  WS02006235WS02006234 CONDUIT    219.23     0  03:11      0.95    2.31    0.89
  WS02006234WS02006232 CONDUIT    224.08     0  03:11      0.76    0.45    0.96
  WS02006232WS02006231 CONDUIT    228.13     0  03:12      0.71    0.48    0.96
  WS02006231WS02006230 CONDUIT    234.09     0  03:11      1.05    3.55    0.91
  WS02006230WS02006229 CONDUIT    250.37     0  03:11      0.65    5.57    1.00
  WS02006228WS02006109 CONDUIT    561.37     0  03:03      1.12    2.45    1.00
  WS02006116WS02004401 CONDUIT    573.35     0  03:04      0.79    0.79    0.87
  WS02006115WS02006116 CONDUIT    575.33     0  03:03      0.86    0.74    0.79
  WS02006113WS02006111 CONDUIT    587.05     0  03:03      2.50    0.70    0.47
  WS02006112WS02006115 CONDUIT    585.40     0  03:03      0.80    0.35    0.89
  WS02006111WS02006112 CONDUIT    569.12     0  03:03      1.57    0.27    0.68
  WS02006110WS02006113 CONDUIT    562.97     0  03:02      1.32    0.51    0.79
  WS02006109WS02006110 CONDUIT    562.54     0  03:03      1.12    1.08    1.00
  WS02004411WS02004412 CONDUIT    570.28     0  03:06      0.95    0.81    0.71
  WS02004401WS02004402 CONDUIT    572.74     0  03:04      0.78    0.69    0.89
  WS02004413WS02003067 CONDUIT    569.90     0  03:06      1.15    0.24    0.60
  WS02004412WS02004413 CONDUIT    570.08     0  03:06      0.85    0.38    0.79
  WS02004410WS02004411 CONDUIT    570.70     0  03:05      0.96    0.78    0.71
  WS02004409WS02004410 CONDUIT    571.14     0  03:05      0.98    0.74    0.70
  WS02004407WS02004409 CONDUIT    571.84     0  03:05      1.47    0.20    0.50
  WS02004406WS02004407 CONDUIT    572.04     0  03:05      1.08    0.26    0.64
  WS02004405WS02004406 CONDUIT    572.42     0  03:04      0.73    1.13    0.98
  WS02004404WS02004405 CONDUIT    572.19     0  03:04      0.73    5.61    0.98
  WS02004403WS02004404 CONDUIT    572.12     0  03:04      0.74    0.41    0.95
  WS02004402WS02004403 CONDUIT    572.48     0  03:04      0.76    0.82    0.91
  WS02004139WS02001211 CONDUIT    286.65     0  03:21      0.54    0.36    0.54
  WS02004138WS02004139 CONDUIT    285.00     0  01:47      2.39    0.06    0.39
  WS02003067WS02003066 CONDUIT    569.99     0  03:06      1.25    0.18    0.42
  WS02001213WS02003059 CONDUIT    299.44     0  03:21      0.59    0.49    0.73
  WS02001212WS02001213 CONDUIT    296.97     0  03:22      1.19    0.46    0.42
  WS02001211WS02001212 CONDUIT    295.55     0  03:22      0.67    0.23    0.59
  WS02003072WS02003073 CONDUIT    876.43     0  03:08      1.69    1.89    0.47
  WS02003069WS02003072 CONDUIT    876.50     0  03:08      1.59    0.42    0.49
  WS02003060WS02003069 CONDUIT    876.32     0  03:07      1.83    0.34    0.44
  WS02003059WS02003060 CONDUIT    302.77     0  03:22      0.82    0.20    0.63
  HS02004901HS02004770 CONDUIT     17.71     0  03:01      0.07    0.07    0.39
  HS02004876HS02004881 CONDUIT     71.90     0  03:01      0.92    0.76    0.11
  HS02004870HS02004876 CONDUIT     58.03     0  03:01      0.63    0.04    0.13
  HS02004842HS02004848 CONDUIT     11.42     0  03:01      0.05    0.01    0.30
  HS02004837HS02004842 CONDUIT     11.94     0  03:02      0.42    0.01    0.32
  HS02004830HS02004837 CONDUIT     41.69     0  03:01      0.56    0.04    0.11
  HS02004824HS02004830 CONDUIT     41.67     0  03:01      0.58    0.05    0.10
  HS02004817HS02004824 CONDUIT     81.58     0  03:01      0.25    0.04    0.47
  HS02004770HS02004777 CONDUIT     90.21     0  03:01      0.32    0.16    0.41
  HS02004799HS02004480 CONDUIT    226.97     0  03:01      0.78    0.29    0.42
  HS02004792HS02004799 CONDUIT    206.60     0  03:01      0.88    0.13    0.33
  HS02004788HS02004792 CONDUIT    118.94     0  03:01      1.01    0.08    0.17
  HS02004785HS02004788 CONDUIT     89.52     0  03:02      0.66    0.67    0.19
  HS02004777HS02004785 CONDUIT     89.64     0  03:01      0.38    0.11    0.33
  HS02004480HS02004478 CONDUIT    269.12     0  03:01      1.20    1.13    0.32
  HS02004479HS02004480 CONDUIT     44.17     0  03:02      0.23    0.04    0.40
  HS02004862HS02004870 CONDUIT     44.23     0  03:01      0.64    0.05    0.10
  HS02004848HS02004852 CONDUIT     20.44     0  03:01      0.44    0.02    0.07
  HS02004856HS02004862 CONDUIT     30.56     0  03:01      0.47    0.03    0.09
  HS02004852HS02004856 CONDUIT     20.26     0  03:01      0.24    0.02    0.12
  HS02004802HS02004478 CONDUIT    106.59     0  03:02      0.45    0.09    0.35
  HS02004478WS02006287 CONDUIT    375.27     0  03:01      1.68    0.11    0.25
  HS02004817HS02004807 CONDUIT     82.18     0  03:01      0.19    0.05    0.62
  HS02004807HS02004802 CONDUIT    106.49     0  03:01      0.38    0.20    0.40
  YS02001759YS02001757 CONDUIT    600.11     0  02:49      0.76    0.43    1.00
  YS02001762YS02001759 CONDUIT    303.57     0  02:49      0.39    0.35    1.00
  YS02001765YS02001762 CONDUIT    303.34     0  02:49      0.39    0.28    1.00
  YS02001770YS02001767 CONDUIT    302.90     0  02:49      0.39    1.20    1.00
  YS02001774YS02001770 CONDUIT    484.53     0  03:19      0.62    0.31    1.00
  YS02001779YS02001774 CONDUIT    484.23     0  03:19      0.62    0.24    1.00
  YS02001649YS02001757 CONDUIT    870.70     0  02:46      1.11    0.53    1.00
  YS02001767YS02001765 CONDUIT    303.38     0  02:49      0.39    0.38    1.00
  YS02006561YS02001783 CONDUIT    964.24     0  03:00      2.11    0.50    1.00
  YS02001783YS02001784 CONDUIT    964.31     0  03:00      1.92    1.33    1.00
  YS02001784YS02001785 CONDUIT    965.21     0  03:00      1.92    2.25    1.00
  YS02001788YS02001790 CONDUIT    965.45     0  03:00      2.31    0.71    1.00
  YS02001790YS02001791 CONDUIT    965.61     0  03:00      2.78    1.05    1.00
  YS02001791YS02001793 CONDUIT    965.75     0  03:00      4.61    0.41    1.00
  YS02001910YS02001907 CONDUIT    462.12     0  02:55      0.59    0.26    1.00
  YS02001786YS02001788 CONDUIT    965.31     0  03:00      2.22    1.86    1.00
  YS02001915YS02001910 CONDUIT    462.08     0  02:55      0.59    0.23    1.00
  YS02001918YS02001915 CONDUIT    225.15     0  02:55      0.44    0.12    1.00
  YS02001923YS02001920 CONDUIT    221.83     0  02:55      0.68    0.10    1.00
  YS02001926YS02001923 CONDUIT    219.39     0  02:55      0.79    0.31    0.91
  YS02001929YS02001926 CONDUIT    187.92     0  02:54      0.84    0.09    0.80
  YS02001920YS02001918 CONDUIT    224.54     0  02:55      0.67    0.22    1.00
  YS02001629YS02163301 CONDUIT    199.30     0  02:32      0.25    0.25    1.00
  YS02001619YS02001622 CONDUIT    257.30     0  03:01      0.61    0.38    1.00
  YS02001622YS02001625 CONDUIT    257.36     0  03:01      0.33    0.14    1.00
  YS02001625YS02001629 CONDUIT    212.61     0  02:29      0.27    0.10    1.00
  YS02163301YS02001633 CONDUIT    198.99     0  02:32      0.25    0.19    1.00
  YS02163601YS02164001 CONDUIT    411.08     0  02:46      0.52    0.36    1.00
  YS02164001YS02001641 CONDUIT    410.92     0  02:46      0.52    0.56    1.00
  YS02001641YS02001644 CONDUIT    411.23     0  02:46      0.52    1.33    1.00
  YS02001647YS02001649 CONDUIT    623.96     0  02:46      0.79    0.33    1.00
  YS02006553YS02006556 CONDUIT    666.95     0  03:17      0.85    0.57    1.00
  YS02006556YS02006558 CONDUIT    667.10     0  03:17      0.85    0.53    1.00
  YSB6556YSB1171       CONDUIT     24.81     0  03:03      0.09    0.03    0.67
  YS02001907YS02006553 CONDUIT    666.98     0  03:17      0.74    0.78    1.00
  YS02006558YS02006561 CONDUIT    964.23     0  03:00      3.41    2.13    1.00
  YS02001633YS02163601 CONDUIT    411.13     0  02:46      0.52    0.43    1.00
  YS02001644YS02001647 CONDUIT    623.66     0  02:46      0.79    0.37    1.00
  YS02001745YS02001748 CONDUIT    578.12     0  02:38      1.48    0.22    0.95
  YS02001748YS02001751 CONDUIT    314.82     0  02:30      1.05    0.16    1.00
  YS02001751YS02001754 CONDUIT    307.61     0  03:01      0.88    0.15    1.00
  YS02001754YS02001757 CONDUIT    307.83     0  03:01      0.39    0.12    1.00
  YS02001882YS02001884 CONDUIT     24.16     0  02:47      0.09    0.03    1.00
  YS02001884YS02001887 CONDUIT     33.82     0  02:46      0.05    0.05    1.00
  YS02001890YS02001895 CONDUIT    453.46     0  03:01      0.58    0.21    1.00
  YS02001895YS02001898 CONDUIT    453.48     0  03:01      0.58    0.79    1.00
  YS02001898YS02001901 CONDUIT    453.47     0  03:01      0.58    0.29    1.00
  YS02001901YS02001904 CONDUIT    453.50     0  03:01      0.58    0.70    1.00
  YS02001904YS02001907 CONDUIT    453.53     0  03:01      0.58    0.16    1.00
  YS02001887YS02001890 CONDUIT    453.43     0  03:01      0.58    0.78    1.00
  YS02001652YS02001649 CONDUIT    367.86     0  03:01      0.50    0.18    1.00
  YS02001655YS02001652 CONDUIT    367.60     0  03:01      0.93    0.18    1.00
  YS02001658YS02001655 CONDUIT    404.62     0  02:31      1.21    0.17    1.00
  YS02001661YS02001658 CONDUIT    626.81     0  02:34      1.56    0.25    1.00
  YS02001664YS02001661 CONDUIT    666.91     0  02:48      1.46    0.21    0.74
  YSB1154YSB6556       CONDUIT     24.91     0  03:01      0.19    0.04    0.56
  YSB1174YSB1171       CONDUIT     18.78     0  03:01      0.07    0.03    0.68
  YSB1171HS02004479    CONDUIT     42.82     0  03:02      0.54    0.03    0.53
  HS02004881HS02006253 CONDUIT     79.15     0  03:01      2.19    0.02    0.05
  YS02001793JiankangQianchi CONDUIT   1190.53     0  02:16      1.93    0.09    1.00
  YS02001757CaochengTiaoxuchi CONDUIT   1653.42     0  02:47      2.13    0.73    1.00
  WSF200WS02003060     CONDUIT    570.12     0  03:07      1.68    0.13    0.34
  1                    CONDUIT    878.14     0  03:09      3.21    0.31    0.38
  2                    CONDUIT      0.00     0  00:00      0.00    0.00    0.00
  3                    CONDUIT    569.17     0  02:18     10.10    0.91    0.84
  4                    CONDUIT      0.00     0  00:00      0.00    0.00    0.00
  CC-Pump-1            PUMP         0.00     0  00:00              0.00
  CC-Pump-2            PUMP         0.00     0  00:00              0.00
  JK-Pump-1            PUMP       300.00     0  01:58              1.00
  JK-Pump-2            PUMP       300.00     0  02:18              1.00
  XR-Pump-1            PUMP        95.00     0  00:00              1.00
  XR-Pump-2            PUMP        95.00     0  00:25              1.00
  XR-Pump-3            PUMP        95.00     0  01:44              1.00
  XR-Pump-4            PUMP         0.00     0  00:00              0.00
  
  
  ***************************
  Flow Classification Summary
  ***************************
  
  -------------------------------------------------------------------------------------
                      Adjusted    ---------- Fraction of Time in Flow Class ---------- 
                       /Actual         Up    Down  Sub   Sup   Up    Down  Norm  Inlet 
  Conduit               Length    Dry  Dry   Dry   Crit  Crit  Crit  Crit  Ltd   Ctrl  
  -------------------------------------------------------------------------------------
  WS02003066WSF200        1.00   0.07  0.00  0.00  0.00  0.93  0.00  0.00  0.65  0.00
  WS02006287WS02006284    1.00   0.02  0.01  0.00  0.50  0.47  0.00  0.00  0.65  0.00
  WS02006284WS02006280    1.00   0.03  0.00  0.00  0.00  0.00  0.00  0.97  0.00  0.00
  WS02006280WS02006229    1.00   0.03  0.00  0.00  0.00  0.00  0.00  0.97  0.00  0.00
  WS02006229WS02006228    1.00   0.00  0.00  0.00  1.00  0.00  0.00  0.00  0.00  0.00
  WS02006256WS02006235    1.00   0.04  0.00  0.00  0.94  0.02  0.00  0.00  0.01  0.00
  WS02006253WS02006251    1.00   0.01  0.01  0.00  0.97  0.00  0.00  0.00  0.00  0.00
  WS02006252WS02006251    1.00   1.00  0.00  0.00  0.00  0.00  0.00  0.00  0.00  0.00
  WS02006251WS02006249    1.00   0.00  0.00  0.00  1.00  0.00  0.00  0.00  0.81  0.00
  WS02006249WS02006248    1.00   0.00  0.00  0.00  0.26  0.00  0.73  0.00  0.00  0.00
  WS02006248WS02006247    1.00   0.00  0.00  0.00  0.99  0.00  0.00  0.01  0.72  0.00
  WS02006247WS02006245    1.00   0.00  0.00  0.00  0.98  0.00  0.00  0.02  0.00  0.00
  WS02006245WS02006243    1.00   0.01  0.00  0.00  0.96  0.00  0.00  0.04  0.06  0.00
  WS02006243WS02006242    1.00   0.01  0.00  0.00  0.97  0.00  0.00  0.03  0.22  0.00
  WS02006242WS02006240    1.00   0.01  0.02  0.00  0.96  0.00  0.00  0.00  0.00  0.00
  WS02006240WS02006239    1.00   0.03  0.00  0.00  0.94  0.00  0.00  0.02  0.04  0.00
  WS02006239WS02006238    1.00   0.03  0.00  0.00  0.96  0.00  0.00  0.01  0.00  0.00
  WS02006238WS02006235    1.00   0.04  0.01  0.00  0.96  0.00  0.00  0.00  0.00  0.00
  WS02006235WS02006234    1.00   0.04  0.00  0.00  0.94  0.00  0.02  0.00  0.00  0.00
  WS02006234WS02006232    1.00   0.04  0.00  0.00  0.96  0.00  0.00  0.00  0.01  0.00
  WS02006232WS02006231    1.00   0.04  0.01  0.00  0.95  0.00  0.00  0.00  0.01  0.00
  WS02006231WS02006230    1.00   0.05  0.00  0.00  0.33  0.00  0.62  0.00  0.00  0.00
  WS02006230WS02006229    1.00   0.00  0.00  0.00  0.99  0.00  0.00  0.01  0.01  0.00
  WS02006228WS02006109    1.00   0.00  0.00  0.00  1.00  0.00  0.00  0.00  0.00  0.00
  WS02006116WS02004401    1.00   0.02  0.00  0.00  0.98  0.00  0.00  0.00  0.01  0.00
  WS02006115WS02006116    1.00   0.02  0.00  0.00  0.96  0.00  0.00  0.02  0.00  0.00
  WS02006113WS02006111    1.00   0.01  0.00  0.00  0.01  0.98  0.00  0.00  0.13  0.00
  WS02006112WS02006115    1.00   0.01  0.01  0.00  0.98  0.00  0.00  0.00  0.00  0.00
  WS02006111WS02006112    1.00   0.01  0.00  0.00  0.98  0.00  0.00  0.00  0.92  0.00
  WS02006110WS02006113    1.00   0.00  0.01  0.00  0.99  0.00  0.00  0.00  0.00  0.00
  WS02006109WS02006110    1.00   0.00  0.00  0.00  1.00  0.00  0.00  0.00  0.00  0.00
  WS02004411WS02004412    1.00   0.05  0.00  0.00  0.95  0.00  0.00  0.00  0.00  0.00
  WS02004401WS02004402    1.00   0.02  0.00  0.00  0.98  0.00  0.00  0.00  0.04  0.00
  WS02004413WS02003067    1.00   0.05  0.01  0.00  0.00  0.00  0.94  0.00  0.00  0.00
  WS02004412WS02004413    1.00   0.05  0.00  0.00  0.95  0.00  0.00  0.00  0.00  0.00
  WS02004410WS02004411    1.00   0.05  0.00  0.00  0.95  0.00  0.00  0.00  0.00  0.00
  WS02004409WS02004410    1.00   0.05  0.00  0.00  0.95  0.00  0.00  0.00  0.00  0.00
  WS02004407WS02004409    1.00   0.05  0.00  0.00  0.95  0.00  0.00  0.00  0.77  0.00
  WS02004406WS02004407    1.00   0.00  0.05  0.00  0.95  0.00  0.00  0.00  0.00  0.00
  WS02004405WS02004406    1.00   0.00  0.00  0.00  1.00  0.00  0.00  0.00  0.04  0.00
  WS02004404WS02004405    1.00   0.00  0.00  0.00  1.00  0.00  0.00  0.00  0.01  0.00
  WS02004403WS02004404    1.00   0.00  0.02  0.00  0.98  0.00  0.00  0.00  0.04  0.00
  WS02004402WS02004403    1.00   0.02  0.00  0.00  0.98  0.00  0.00  0.00  0.00  0.00
  WS02004139WS02001211    1.00   0.00  0.00  0.00  1.00  0.00  0.00  0.00  0.00  0.00
  WS02004138WS02004139    1.00   0.00  0.00  0.00  1.00  0.00  0.00  0.00  1.00  0.00
  WS02003067WS02003066    1.00   0.06  0.00  0.00  0.94  0.00  0.00  0.00  0.00  0.00
  WS02001213WS02003059    1.00   0.00  0.00  0.00  1.00  0.00  0.00  0.00  0.00  0.00
  WS02001212WS02001213    1.00   0.00  0.00  0.00  0.57  0.00  0.42  0.00  0.00  0.00
  WS02001211WS02001212    1.00   0.00  0.00  0.00  1.00  0.00  0.00  0.00  0.00  0.00
  WS02003072WS02003073    1.00   0.00  0.00  0.00  0.00  0.00  0.00  1.00  0.00  0.00
  WS02003069WS02003072    1.00   0.00  0.00  0.00  1.00  0.00  0.00  0.00  0.26  0.00
  WS02003060WS02003069    1.00   0.00  0.00  0.00  0.99  0.01  0.00  0.00  0.18  0.00
  WS02003059WS02003060    1.00   0.00  0.00  0.00  1.00  0.00  0.00  0.00  0.02  0.00
  HS02004901HS02004770    1.00   0.03  0.00  0.00  0.97  0.00  0.00  0.00  0.00  0.00
  HS02004876HS02004881    1.00   0.00  0.00  0.00  0.88  0.11  0.00  0.00  0.00  0.00
  HS02004870HS02004876    1.00   0.00  0.00  0.00  1.00  0.00  0.00  0.00  0.95  0.00
  HS02004842HS02004848    1.00   0.00  0.03  0.00  0.97  0.00  0.00  0.00  0.58  0.00
  HS02004837HS02004842    1.00   0.00  0.00  0.00  1.00  0.00  0.00  0.00  0.11  0.00
  HS02004830HS02004837    1.00   0.00  0.00  0.00  1.00  0.00  0.00  0.00  0.99  0.00
  HS02004824HS02004830    1.00   0.00  0.00  0.00  1.00  0.00  0.00  0.00  0.00  0.00
  HS02004817HS02004824    1.00   0.00  0.00  0.00  1.00  0.00  0.00  0.00  1.00  0.00
  HS02004770HS02004777    1.00   0.00  0.03  0.00  0.97  0.00  0.00  0.00  0.03  0.00
  HS02004799HS02004480    1.00   0.00  0.01  0.00  0.97  0.00  0.03  0.00  0.00  0.00
  HS02004792HS02004799    1.00   0.00  0.00  0.00  1.00  0.00  0.00  0.00  0.98  0.00
  HS02004788HS02004792    1.00   0.00  0.00  0.00  1.00  0.00  0.00  0.00  0.98  0.00
  HS02004785HS02004788    1.00   0.00  0.00  0.00  1.00  0.00  0.00  0.00  0.00  0.00
  HS02004777HS02004785    1.00   0.00  0.00  0.00  1.00  0.00  0.00  0.00  0.14  0.00
  HS02004480HS02004478    1.00   0.03  0.00  0.00  0.59  0.00  0.00  0.38  0.00  0.00
  HS02004479HS02004480    1.00   0.01  0.00  0.00  0.99  0.00  0.00  0.00  0.13  0.00
  HS02004862HS02004870    1.00   0.00  0.00  0.00  1.00  0.00  0.00  0.00  0.05  0.00
  HS02004848HS02004852    1.00   0.03  0.00  0.00  0.97  0.00  0.00  0.00  0.61  0.00
  HS02004856HS02004862    1.00   0.00  0.04  0.00  0.96  0.00  0.00  0.00  0.80  0.00
  HS02004852HS02004856    1.00   0.03  0.00  0.00  0.97  0.00  0.00  0.00  0.85  0.00
  HS02004802HS02004478    1.00   0.03  0.00  0.00  0.97  0.00  0.00  0.00  0.03  0.00
  HS02004478WS02006287    1.00   0.03  0.00  0.00  0.68  0.29  0.00  0.00  0.66  0.00
  HS02004817HS02004807    1.00   0.00  0.03  0.00  0.97  0.00  0.00  0.00  0.01  0.00
  HS02004807HS02004802    1.00   0.03  0.00  0.00  0.97  0.00  0.00  0.00  0.00  0.00
  YS02001759YS02001757    1.00   0.00  0.00  0.00  1.00  0.00  0.00  0.00  0.16  0.00
  YS02001762YS02001759    1.00   0.00  0.00  0.00  1.00  0.00  0.00  0.00  0.03  0.00
  YS02001765YS02001762    1.00   0.00  0.00  0.00  1.00  0.00  0.00  0.00  0.16  0.00
  YS02001770YS02001767    1.00   0.00  0.00  0.00  1.00  0.00  0.00  0.00  0.00  0.00
  YS02001774YS02001770    1.00   0.00  0.03  0.00  0.97  0.00  0.00  0.00  0.04  0.00
  YS02001779YS02001774    1.00   0.00  0.00  0.00  1.00  0.00  0.00  0.00  0.21  0.00
  YS02001649YS02001757    1.00   0.00  0.00  0.00  1.00  0.00  0.00  0.00  0.17  0.00
  YS02001767YS02001765    1.00   0.00  0.00  0.00  1.00  0.00  0.00  0.00  0.00  0.00
  YS02006561YS02001783    1.00   0.04  0.00  0.00  0.34  0.62  0.00  0.00  0.49  0.00
  YS02001783YS02001784    1.00   0.00  0.04  0.00  0.96  0.00  0.00  0.00  0.01  0.00
  YS02001784YS02001785    1.00   0.00  0.00  0.00  1.00  0.00  0.00  0.00  0.20  0.00
  YS02001788YS02001790    1.00   0.00  0.00  0.00  0.38  0.62  0.00  0.00  0.48  0.00
  YS02001790YS02001791    1.00   0.00  0.00  0.00  0.35  0.65  0.00  0.00  0.55  0.00
  YS02001791YS02001793    1.00   0.00  0.00  0.00  0.62  0.38  0.00  0.00  0.28  0.00
  YS02001910YS02001907    1.00   0.00  0.00  0.00  0.99  0.00  0.00  0.00  0.13  0.00
  YS02001786YS02001788    1.00   0.00  0.00  0.00  0.37  0.63  0.00  0.00  0.00  0.00
  YS02001915YS02001910    1.00   0.00  0.00  0.00  0.99  0.01  0.00  0.00  0.18  0.00
  YS02001918YS02001915    1.00   0.00  0.00  0.00  1.00  0.00  0.00  0.00  0.58  0.00
  YS02001923YS02001920    1.00   0.00  0.00  0.00  1.00  0.00  0.00  0.00  0.86  0.00
  YS02001926YS02001923    1.00   0.00  0.01  0.00  0.19  0.00  0.80  0.00  0.00  0.00
  YS02001929YS02001926    1.00   0.00  0.03  0.00  0.97  0.00  0.00  0.00  0.78  0.00
  YS02001920YS02001918    1.00   0.00  0.00  0.00  1.00  0.00  0.00  0.00  0.00  0.00
  YS02001629YS02163301    1.00   0.03  0.00  0.00  0.96  0.00  0.00  0.00  0.00  0.00
  YS02001619YS02001622    1.00   0.03  0.00  0.00  0.97  0.00  0.00  0.00  0.00  0.00
  YS02001622YS02001625    1.00   0.03  0.00  0.00  0.97  0.00  0.00  0.00  0.07  0.00
  YS02001625YS02001629    1.00   0.03  0.02  0.00  0.94  0.00  0.01  0.00  0.00  0.00
  YS02163301YS02001633    1.00   0.00  0.03  0.00  0.97  0.00  0.00  0.00  0.00  0.00
  YS02163601YS02164001    1.00   0.00  0.02  0.00  0.98  0.00  0.00  0.00  0.00  0.00
  YS02164001YS02001641    1.00   0.00  0.01  0.00  0.98  0.00  0.00  0.00  0.06  0.00
  YS02001641YS02001644    1.00   0.00  0.00  0.00  1.00  0.00  0.00  0.00  0.00  0.00
  YS02001647YS02001649    1.00   0.00  0.04  0.00  0.96  0.00  0.00  0.00  0.01  0.00
  YS02006553YS02006556    1.00   0.00  0.00  0.00  1.00  0.00  0.00  0.00  0.03  0.00
  YS02006556YS02006558    1.00   0.00  0.00  0.00  1.00  0.00  0.00  0.00  0.00  0.00
  YSB6556YSB1171          1.00   0.01  0.02  0.00  0.98  0.00  0.00  0.00  0.00  0.00
  YS02001907YS02006553    1.00   0.00  0.00  0.00  1.00  0.00  0.00  0.00  0.00  0.00
  YS02006558YS02006561    1.00   0.04  0.00  0.00  0.23  0.72  0.00  0.00  0.48  0.00
  YS02001633YS02163601    1.00   0.00  0.00  0.00  1.00  0.00  0.00  0.00  0.16  0.00
  YS02001644YS02001647    1.00   0.00  0.04  0.00  0.96  0.00  0.00  0.00  0.00  0.00
  YS02001745YS02001748    1.00   0.00  0.00  0.00  0.91  0.01  0.00  0.08  0.04  0.00
  YS02001748YS02001751    1.00   0.00  0.00  0.00  0.97  0.03  0.00  0.00  0.15  0.00
  YS02001751YS02001754    1.00   0.00  0.00  0.00  0.95  0.00  0.00  0.05  0.02  0.00
  YS02001754YS02001757    1.00   0.00  0.00  0.00  1.00  0.00  0.00  0.00  0.20  0.00
  YS02001882YS02001884    1.00   0.03  0.00  0.00  0.97  0.00  0.00  0.00  0.00  0.00
  YS02001884YS02001887    1.00   0.01  0.01  0.00  0.98  0.00  0.00  0.00  0.00  0.00
  YS02001890YS02001895    1.00   0.00  0.03  0.00  0.97  0.00  0.00  0.00  0.00  0.00
  YS02001895YS02001898    1.00   0.03  0.00  0.00  0.96  0.00  0.01  0.00  0.00  0.00
  YS02001898YS02001901    1.00   0.04  0.00  0.00  0.96  0.00  0.00  0.00  0.02  0.00
  YS02001901YS02001904    1.00   0.04  0.00  0.00  0.96  0.00  0.00  0.00  0.00  0.00
  YS02001904YS02001907    1.00   0.00  0.03  0.00  0.96  0.00  0.00  0.00  0.00  0.00
  YS02001887YS02001890    1.00   0.00  0.00  0.00  0.99  0.00  0.01  0.00  0.00  0.00
  YS02001652YS02001649    1.00   0.00  0.00  0.00  1.00  0.00  0.00  0.00  0.18  0.00
  YS02001655YS02001652    1.00   0.00  0.00  0.00  0.95  0.00  0.00  0.05  0.02  0.00
  YS02001658YS02001655    1.00   0.00  0.03  0.00  0.94  0.03  0.00  0.00  0.11  0.00
  YS02001661YS02001658    1.00   0.03  0.00  0.00  0.91  0.07  0.00  0.00  0.05  0.00
  YS02001664YS02001661    1.00   0.03  0.00  0.00  0.89  0.09  0.00  0.00  0.21  0.00
  YSB1154YSB6556          1.00   0.02  0.00  0.00  0.98  0.00  0.00  0.00  0.02  0.00
  YSB1174YSB1171          1.00   0.01  0.01  0.00  0.98  0.00  0.00  0.00  0.00  0.00
  YSB1171HS02004479       1.00   0.01  0.00  0.00  0.99  0.00  0.00  0.00  0.11  0.00
  HS02004881HS02006253    1.00   0.01  0.00  0.00  0.00  0.00  0.00  0.99  0.00  0.00
  YS02001793JiankangQianchi    1.00   0.00  0.00  0.00  1.00  0.00  0.00  0.00  0.45  0.00
  YS02001757CaochengTiaoxuchi    1.00   0.00  0.06  0.00  0.94  0.00  0.00  0.00  0.00  0.00
  WSF200WS02003060        1.00   0.00  0.07  0.00  0.93  0.00  0.00  0.00  0.57  0.00
  1                       1.00   0.00  0.00  0.00  0.00  1.00  0.00  0.00  0.39  0.00
  2                       1.00   1.00  0.00  0.00  0.00  0.00  0.00  0.00  0.00  0.00
  3                       1.00   0.10  0.00  0.00  0.00  0.90  0.00  0.00  0.00  0.00
  4                       1.00   1.00  0.00  0.00  0.00  0.00  0.00  0.00  0.00  0.00
  
  
  *************************
  Conduit Surcharge Summary
  *************************
  
  ----------------------------------------------------------------------------
                                                           Hours        Hours 
                         --------- Hours Full --------   Above Full   Capacity
  Conduit                Both Ends  Upstream  Dnstream   Normal Flow   Limited
  ----------------------------------------------------------------------------
  WS02006229WS02006228        1.08      1.12      1.08      1.40         1.08
  WS02006256WS02006235        4.49      4.51      6.03      4.67         0.01
  WS02006235WS02006234        0.01      0.01      0.01      4.54         0.01
  WS02006234WS02006232        0.01      0.01      0.25      0.01         0.01
  WS02006232WS02006231        0.01      0.01      0.25      0.01         0.01
  WS02006231WS02006230        0.01      0.01      0.01      4.78         0.01
  WS02006230WS02006229        1.26      1.29      1.26      5.42         1.26
  WS02006228WS02006109        1.10      1.19      1.10      1.71         1.10
  WS02006112WS02006115        0.01      0.01      0.59      0.01         0.01
  WS02006111WS02006112        0.01      0.01      1.45      0.01         0.01
  WS02006110WS02006113        0.01      0.01      1.15      0.01         0.01
  WS02006109WS02006110        0.29      0.29      1.19      0.29         0.01
  WS02004405WS02004406        0.01      0.01      0.01      0.47         0.01
  WS02004404WS02004405        0.01      0.01      0.01      4.71         0.01
  WS02003072WS02003073        0.01      0.01      0.01      3.64         0.01
  HS02004480HS02004478        0.01      0.01      0.01      0.25         0.01
  YS02001759YS02001757        5.66      5.66      5.74      0.01         0.01
  YS02001762YS02001759        5.64      5.64      5.66      0.01         0.01
  YS02001765YS02001762        5.61      5.61      5.64      0.01         0.01
  YS02001770YS02001767        5.59      5.59      5.59      0.22         0.55
  YS02001774YS02001770        5.57      5.57      5.63      0.01         0.01
  YS02001779YS02001774        5.46      5.46      5.63      0.01         0.01
  YS02001649YS02001757        5.64      5.64      5.74      0.01         0.01
  YS02001767YS02001765        5.59      5.59      5.61      0.01         0.01
  YS02006561YS02001783        0.64      0.64      1.21      0.01         0.01
  YS02001783YS02001784        1.21      1.21      1.23      1.16         0.99
  YS02001784YS02001785        1.20      1.23      1.20      2.07         1.20
  YS02001788YS02001790        1.19      1.19      1.41      0.01         0.01
  YS02001790YS02001791        1.41      1.41      1.46      0.48         0.48
  YS02001791YS02001793        1.46      1.46      1.80      0.01         0.01
  YS02001910YS02001907        0.97      0.97      1.49      0.01         0.01
  YS02001786YS02001788        1.19      1.20      1.19      1.72         1.18
  YS02001915YS02001910        0.77      0.77      0.97      0.01         0.01
  YS02001918YS02001915        0.52      0.52      0.77      0.01         0.01
  YS02001923YS02001920        0.28      0.28      0.55      0.01         0.01
  YS02001920YS02001918        0.52      0.52      0.55      0.01         0.01
  YS02001629YS02163301        5.57      5.57      5.58      0.01         0.01
  YS02001619YS02001622        5.27      5.27      5.31      0.01         0.01
  YS02001622YS02001625        5.31      5.31      5.54      0.01         0.01
  YS02001625YS02001629        5.28      5.28      5.54      0.01         0.01
  YS02163301YS02001633        5.58      5.58      5.61      0.01         0.01
  YS02163601YS02164001        5.61      5.61      5.64      0.01         0.01
  YS02164001YS02001641        5.61      5.61      5.62      0.01         0.02
  YS02001641YS02001644        5.62      5.62      5.62      1.22         1.28
  YS02001647YS02001649        5.53      5.53      5.64      0.01         0.01
  YS02006553YS02006556        1.20      1.20      1.54      0.01         0.01
  YS02006556YS02006558        1.37      1.37      1.61      0.01         0.01
  YS02001907YS02006553        2.09      2.09      2.30      0.01         0.01
  YS02006558YS02006561        0.86      1.15      0.86      1.94         0.86
  YS02001633YS02163601        5.61      5.61      5.64      0.01         0.01
  YS02001644YS02001647        5.53      5.53      5.62      0.01         0.01
  YS02001745YS02001748        0.01      0.01      5.11      0.01         0.01
  YS02001748YS02001751        5.16      5.16      5.28      0.01         0.01
  YS02001751YS02001754        5.28      5.28      5.48      0.01         0.01
  YS02001754YS02001757        5.52      5.52      5.74      0.01         0.01
  YS02001882YS02001884        0.78      0.78      0.81      0.01         0.01
  YS02001884YS02001887        0.87      0.87      0.89      0.01         0.01
  YS02001890YS02001895        0.75      0.75      0.99      0.01         0.01
  YS02001895YS02001898        0.73      0.73      0.75      0.01         0.01
  YS02001898YS02001901        0.76      0.76      0.86      0.01         0.01
  YS02001901YS02001904        0.84      0.84      0.86      0.01         0.01
  YS02001904YS02001907        0.84      0.84      1.56      0.01         0.01
  YS02001887YS02001890        0.93      0.93      0.96      0.01         0.01
  YS02001652YS02001649        5.54      5.54      5.64      0.01         0.01
  YS02001655YS02001652        5.30      5.30      5.52      0.01         0.01
  YS02001658YS02001655        5.14      5.14      5.30      0.01         0.01
  YS02001661YS02001658        0.21      0.21      5.14      0.01         0.01
  YS02001664YS02001661        0.01      0.01      1.00      0.01         0.01
  YS02001793JiankangQianchi        1.62      1.62      7.82      0.01         0.01
  YS02001757CaochengTiaoxuchi        5.01      5.01      5.74      0.01         0.01
  3                           0.01      0.01      0.01      0.01         0.01
  
  
  ***************
  Pumping Summary
  ***************
  
  ---------------------------------------------------------------------------------------------------------
                                                  Min       Avg       Max     Total     Power    % Time Off
                        Percent   Number of      Flow      Flow      Flow    Volume     Usage    Pump Curve
  Pump                 Utilized   Start-Ups       LPS       LPS       LPS  10^6 ltr     Kw-hr    Low   High
  ---------------------------------------------------------------------------------------------------------
  CC-Pump-1                0.00           0      0.00      0.00      0.00     0.000      0.00    0.0    0.0
  CC-Pump-2                0.00           0      0.00      0.00      0.00     0.000      0.00    0.0    0.0
  JK-Pump-1               59.87           8      0.00    300.00    300.00     5.065     34.20    0.0    0.0
  JK-Pump-2               26.80           7      0.00    300.00    300.00     2.267     11.34    0.0    0.0
  XR-Pump-1              100.00           1      0.00     95.00     95.00     2.679     15.35    0.0    0.0
  XR-Pump-2               94.70           1      0.00     95.00     95.00     2.537     13.92    0.0    0.0
  XR-Pump-3               77.85           1      0.00     95.00     95.00     2.086     10.44    0.0    0.0
  XR-Pump-4                0.00           0      0.00      0.00      0.00     0.000      0.00    0.0    0.0
  

  Analysis begun on:  Thu Jan  6 22:58:35 2022
  Analysis ended on:  Thu Jan  6 22:58:38 2022
  Total elapsed time: 00:00:03