
  EPA STORM WATER MANAGEMENT MODEL - VERSION 5.1 (Build 5.3.0.dev0)
  --------------------------------------------------------------

  WARNING 04: minimum elevation drop used for Conduit WS02004404WS02004405
  WARNING 03: negative offset ignored for Link YS02001904YS02001907
  
  *********************************************************
  NOTE: The summary statistics displayed in this report are
  based on results found at every computational time step,  
  not just on results from each reporting time step.
  *********************************************************
  
  ****************
  Analysis Options
  ****************
  Flow Units ............... LPS
  Process Models:
    Rainfall/Runoff ........ YES
    RDII ................... NO
    Snowmelt ............... NO
    Groundwater ............ NO
    Flow Routing ........... YES
    Ponding Allowed ........ NO
    Water Quality .......... NO
  Infiltration Method ...... HORTON
  Flow Routing Method ...... DYNWAVE
  Surcharge Method ......... EXTRAN
  Starting Date ............ 08/28/2015 08:00:00
  Ending Date .............. 08/28/2015 15:50:00
  Antecedent Dry Days ...... 8.0
  Report Time Step ......... 00:01:00
  Wet Time Step ............ 00:01:00
  Dry Time Step ............ 00:01:00
  Routing Time Step ........ 5.00 sec
  Variable Time Step ....... YES
  Maximum Trials ........... 8
  Number of Threads ........ 4
  Head Tolerance ........... 0.001500 m
  
  
  **************************        Volume         Depth
  Runoff Quantity Continuity     hectare-m            mm
  **************************     ---------       -------
  Total Precipitation ......        10.887        23.836
  Evaporation Loss .........         0.000         0.000
  Infiltration Loss ........         2.344         5.132
  Surface Runoff ...........         7.303        15.990
  Final Storage ............         1.241         2.717
  Continuity Error (%) .....        -0.012
  
  
  **************************        Volume        Volume
  Flow Routing Continuity        hectare-m      10^6 ltr
  **************************     ---------     ---------
  Dry Weather Inflow .......         0.616         6.165
  Wet Weather Inflow .......         7.301        73.015
  Groundwater Inflow .......         0.000         0.000
  RDII Inflow ..............         0.000         0.000
  External Inflow ..........         0.102         1.024
  External Outflow .........         2.578        25.784
  Flooding Loss ............         5.054        50.543
  Evaporation Loss .........         0.000         0.000
  Exfiltration Loss ........         0.000         0.000
  Initial Stored Volume ....         0.076         0.761
  Final Stored Volume ......         0.656         6.561
  Continuity Error (%) .....        -2.375
  
  
  *************************
  Highest Continuity Errors
  *************************
  Node JK-storage (-14.02%)
  Node YS02001884 (10.29%)
  Node HS02004842 (8.73%)
  Node HS02004817 (1.69%)
  Node YSB1171 (1.47%)
  
  
  ***************************
  Time-Step Critical Elements
  ***************************
  Link 3 (88.02%)
  Link WS02006252WS02006251 (8.20%)
  
  
  ********************************
  Highest Flow Instability Indexes
  ********************************
  Link WS02006111WS02006112 (26)
  Link WS02006113WS02006111 (25)
  Link YS02163601YS02164001 (23)
  Link YS02163301YS02001633 (23)
  Link YS02001629YS02163301 (22)
  
  
  *************************
  Routing Time Step Summary
  *************************
  Minimum Time Step           :     0.38 sec
  Average Time Step           :     0.66 sec
  Maximum Time Step           :     5.00 sec
  Percent in Steady State     :    -0.00
  Average Iterations per Step :     3.50
  Percent Not Converging      :     9.88
  
  
  ***************************
  Subcatchment Runoff Summary
  ***************************
  
  ------------------------------------------------------------------------------------------------------------------------------
                            Total      Total      Total      Total     Imperv       Perv      Total       Total     Peak  Runoff
                           Precip      Runon       Evap      Infil     Runoff     Runoff     Runoff      Runoff   Runoff   Coeff
  Subcatchment                 mm         mm         mm         mm         mm         mm         mm    10^6 ltr      LPS
  ------------------------------------------------------------------------------------------------------------------------------
  sub0                      23.84       0.00       0.00       1.03      20.90       0.64      21.54        0.02     4.74   0.904
  sub1                      23.84       0.00       0.00       1.74      19.95       0.88      20.83        0.14    30.53   0.874
  sub2                      23.84       0.00       0.00       6.87      14.10       1.95      16.05        0.15    28.29   0.673
  sub3                      23.84       0.00       0.00       7.14      14.06       1.68      15.74        0.35    61.76   0.660
  sub4                      23.84       0.00       0.00       1.87      19.78       0.75      20.54        0.43    72.83   0.862
  sub5                      23.84       0.00       0.00       1.08      20.85       0.59      21.44        0.24    54.28   0.899
  sub7                      23.84       0.00       0.00       1.37      20.44       0.77      21.21        0.07    17.57   0.890
  sub8                      23.84       0.00       0.00       1.38      20.42       0.76      21.19        0.14    32.08   0.889
  sub9                      23.84       0.00       0.00       1.39      20.42       0.76      21.18        0.10    23.95   0.889
  sub10                     23.84       0.00       0.00       1.24      20.63       0.67      21.30        0.23    53.40   0.894
  sub11                     23.84       0.00       0.00       1.22      20.65       0.69      21.34        0.25    59.71   0.895
  sub12                     23.84       0.00       0.00       1.98      19.55       1.11      20.66        0.18    46.17   0.867
  sub14                     23.84       0.00       0.00       1.39      20.42       0.76      21.18        0.20    47.08   0.888
  sub15                     23.84       0.00       0.00       5.16      15.70       1.99      17.70        0.30    64.58   0.742
  sub16                     23.84       0.00       0.00       5.46      15.05       2.40      17.45        0.18    41.69   0.732
  sub17                     23.84       0.00       0.00       5.32      15.27       2.31      17.58        0.15    34.22   0.738
  sub22                     23.84       0.00       0.00       7.63      12.80       2.62      15.42        0.97   202.91   0.647
  sub23                     23.84       0.00       0.00       6.37      14.15       2.45      16.60        0.79   171.10   0.696
  sub60                     23.84       0.00       0.00       2.46      17.68       0.40      18.08        5.48   635.50   0.759
  sub61                     23.84       0.00       0.00       3.48      17.44       0.57      18.00        5.55   687.97   0.755
  sub62                     23.84       0.00       0.00       1.52      19.11       0.39      19.50        5.99   726.55   0.818
  sub63                     23.84       0.00       0.00       6.22      15.11       0.70      15.81        4.78   606.27   0.663
  sub64                     23.84       0.00       0.00       3.15      17.01       0.42      17.43        5.30   611.50   0.731
  sub65                     23.84       0.00       0.00       2.70      17.34       0.40      17.73        5.45   625.37   0.744
  sub66                     23.84       0.00       0.00       6.42      14.44       0.49      14.93        4.58   541.58   0.626
  sub67                     23.84       0.00       0.00       1.46      19.71       0.45      20.16        6.22   787.40   0.846
  sub68                     23.84       0.00       0.00       2.78      18.22       0.56      18.78        5.78   724.10   0.788
  sub69                     23.84       0.00       0.00       2.86      18.50       0.72      19.22        4.49   586.55   0.806
  sub70                     23.84      19.62       0.00       9.95      26.14       3.78      29.92        6.85   801.71   0.689
  sub71                     23.84       0.00       0.00       1.54      18.81       0.36      19.18        4.53   536.91   0.805
  sub72                     23.84       0.00       0.00       1.45      16.32       0.22      16.55        3.37   330.66   0.694
  sub73                     23.84      29.13       0.00       9.95      31.58       5.28      36.86        8.66   884.85   0.696
  sub74                     23.84       0.00       0.00      17.30       5.48       0.57       6.05        2.42   323.16   0.254
  
  
  ******************
  Node Depth Summary
  ******************
  
  ---------------------------------------------------------------------------------
                                 Average  Maximum  Maximum  Time of Max    Reported
                                   Depth    Depth      HGL   Occurrence   Max Depth
  Node                 Type       Meters   Meters   Meters  days hr:min      Meters
  ---------------------------------------------------------------------------------
  WS02001211           JUNCTION     0.56     0.76     5.60     0  01:41        0.76
  WS02001212           JUNCTION     0.31     0.50     5.56     0  01:41        0.50
  WS02001213           JUNCTION     0.57     0.78     5.55     0  01:41        0.78
  WS02003069           JUNCTION     0.44     0.66     5.25     0  01:43        0.66
  WS02003072           JUNCTION     0.50     0.71     5.08     0  01:43        0.71
  WS02003073           JUNCTION     0.30     0.44     4.51     0  01:44        0.44
  WS02003060           JUNCTION     0.39     0.58     5.51     0  01:42        0.58
  WS02003066           JUNCTION     0.27     0.37     5.93     0  01:38        0.37
  WS02003059           JUNCTION     0.64     0.85     5.53     0  01:42        0.85
  WS02003067           JUNCTION     0.63     0.80     6.12     0  01:37        0.80
  WS02004401           JUNCTION     0.79     1.35     7.35     0  01:32        1.19
  WS02004402           JUNCTION     0.81     1.27     7.23     0  01:32        1.19
  WS02004403           JUNCTION     0.83     1.31     7.24     0  01:32        1.17
  WS02004404           JUNCTION     0.90     1.34     7.19     0  01:32        1.21
  WS02004406           JUNCTION     0.89     1.24     7.07     0  01:32        1.14
  WS02004409           JUNCTION     0.59     0.90     6.67     0  01:38        0.90
  WS02004410           JUNCTION     0.61     0.90     6.62     0  01:38        0.90
  WS02004411           JUNCTION     0.61     0.89     6.57     0  01:38        0.89
  WS02004412           JUNCTION     0.62     0.87     6.51     0  01:38        0.87
  WS02004413           JUNCTION     0.78     1.00     6.47     0  01:39        1.00
  WS02004405           JUNCTION     0.89     1.31     7.16     0  01:32        1.19
  WS02006109           JUNCTION     0.88     1.40     8.01     0  01:35        1.39
  WS02006110           JUNCTION     0.84     1.22     7.81     0  01:35        1.22
  WS02006111           JUNCTION     0.30     0.77     7.47     0  01:35        0.76
  WS02006112           JUNCTION     0.98     1.51     7.39     0  01:32        1.48
  WS02006113           JUNCTION     0.41     0.74     7.63     0  01:35        0.73
  WS02006115           JUNCTION     0.69     1.59     7.73     0  01:32        1.15
  WS02006116           JUNCTION     0.77     1.40     7.44     0  01:32        1.21
  WS02006230           JUNCTION     0.89     1.57     8.32     0  01:30        1.53
  WS02006231           JUNCTION     0.62     1.34     8.47     0  01:30        1.15
  WS02006232           JUNCTION     0.75     1.52     8.56     0  01:30        1.23
  WS02006234           JUNCTION     0.66     1.61     8.76     0  01:29        1.11
  WS02006235           JUNCTION     0.69     1.44     8.61     0  01:30        1.11
  WS02006238           JUNCTION     0.71     1.50     8.65     0  01:30        1.12
  WS02006240           JUNCTION     0.60     2.10     9.39     0  01:29        0.98
  WS02006242           JUNCTION     0.65     1.55     8.82     0  01:30        1.01
  WS02006243           JUNCTION     0.52     1.48     8.90     0  01:30        0.86
  WS02006245           JUNCTION     0.49     1.45     8.94     0  01:30        0.80
  WS02006247           JUNCTION     0.50     1.47     8.97     0  01:30        0.78
  WS02006248           JUNCTION     0.43     1.10     8.69     0  01:30        0.70
  WS02006249           JUNCTION     0.46     0.69     8.29     0  01:31        0.69
  WS02006239           JUNCTION     0.66     2.03     9.24     0  01:29        1.05
  WS02006251           JUNCTION     0.44     0.69     8.36     0  01:37        0.69
  WS02006252           JUNCTION     0.33     0.35     8.60     0  01:27        0.35
  WS02006253           JUNCTION     0.47     0.73     8.37     0  01:37        0.73
  WS02006256           JUNCTION     1.16     1.25     8.19     0  01:50        1.25
  WS02004138           JUNCTION     0.10     0.17     7.42     0  00:20        0.17
  WS02004407           JUNCTION     0.26     0.38     6.70     0  01:36        0.38
  WS02006228           JUNCTION     0.91     1.54     8.19     0  01:35        1.53
  WS02006229           JUNCTION     0.90     1.59     8.28     0  01:35        1.59
  WS02006280           JUNCTION     0.10     0.29     8.56     0  01:35        0.29
  WS02006284           JUNCTION     0.41     0.68     9.08     0  01:36        0.68
  WS02006287           JUNCTION     0.15     0.43     9.38     0  01:35        0.43
  WSF200               JUNCTION     0.26     0.41     5.65     0  01:42        0.41
  HS02004901           JUNCTION     0.17     0.40    10.23     0  01:33        0.40
  HS02004881           JUNCTION     0.02     0.06     9.09     0  01:36        0.06
  HS02004876           JUNCTION     0.06     0.18     9.21     0  01:36        0.18
  HS02004870           JUNCTION     0.03     0.11     9.39     0  01:36        0.11
  HS02004862           JUNCTION     0.03     0.12     9.50     0  01:37        0.12
  HS02004856           JUNCTION     0.09     0.16     9.59     0  01:37        0.16
  HS02004852           JUNCTION     0.02     0.09     9.60     0  01:37        0.09
  HS02004848           JUNCTION     0.02     0.08     9.68     0  01:37        0.08
  HS02004842           JUNCTION     0.34     0.41     9.68     0  01:37        0.41
  HS02004837           JUNCTION     0.04     0.10     9.68     0  01:37        0.10
  HS02004830           JUNCTION     0.05     0.13     9.60     0  01:36        0.13
  HS02004824           JUNCTION     0.04     0.17     9.57     0  01:35        0.17
  HS02004817           JUNCTION     0.48     0.74     9.59     0  01:34        0.74
  HS02004807           JUNCTION     0.17     0.41     9.58     0  01:35        0.41
  HS02004802           JUNCTION     0.20     0.44     9.56     0  01:36        0.44
  HS02004799           JUNCTION     0.18     0.51     9.72     0  01:34        0.51
  HS02004792           JUNCTION     0.06     0.24     9.76     0  01:33        0.24
  HS02004788           JUNCTION     0.05     0.17    10.07     0  01:34        0.17
  HS02004785           JUNCTION     0.08     0.27    10.17     0  01:33        0.27
  HS02004777           JUNCTION     0.19     0.41    10.21     0  01:33        0.41
  HS02004770           JUNCTION     0.16     0.39    10.22     0  01:33        0.39
  HS02004480           JUNCTION     0.13     0.42     9.66     0  01:34        0.42
  HS02004479           JUNCTION     0.17     0.46     9.66     0  01:34        0.46
  HS02004478           JUNCTION     0.10     0.32     9.54     0  01:35        0.32
  YS02001745           JUNCTION     0.83     1.06     8.57     0  01:33        1.04
  YS02001748           JUNCTION     1.25     2.27     9.35     0  01:32        1.46
  YS02001751           JUNCTION     1.43     2.19     9.07     0  01:32        1.63
  YS02001754           JUNCTION     1.68     2.13     8.74     0  01:32        1.88
  YS02001762           JUNCTION     1.88     2.07     8.47     0  01:32        2.07
  YS02001765           JUNCTION     1.84     2.01     8.46     0  03:01        2.01
  YS02001767           JUNCTION     1.80     1.97     8.46     0  03:01        1.97
  YS02001770           JUNCTION     1.79     1.95     8.44     0  02:33        1.95
  YS02001774           JUNCTION     1.85     2.01     8.43     0  01:32        1.99
  YS02001779           JUNCTION     1.59     1.68     8.37     0  01:31        1.68
  YS02001882           JUNCTION     0.88     1.67     8.38     0  01:37        1.64
  YS02001884           JUNCTION     0.98     1.76     8.37     0  01:37        1.73
  YS02001759           JUNCTION     1.92     2.12     8.48     0  01:32        2.11
  YS02001887           JUNCTION     1.06     1.82     8.36     0  01:57        1.81
  YS02001890           JUNCTION     1.08     1.81     8.32     0  01:37        1.81
  YS02001898           JUNCTION     0.84     1.58     8.31     0  01:37        1.56
  YS02001901           JUNCTION     0.96     1.68     8.29     0  01:37        1.67
  YS02001904           JUNCTION     0.94     1.64     8.27     0  01:37        1.63
  YS02001907           JUNCTION     1.26     1.96     8.25     0  01:37        1.96
  YS02001910           JUNCTION     1.06     1.86     8.37     0  01:39        1.79
  YS02001915           JUNCTION     0.87     1.81     8.53     0  01:35        1.62
  YS02001918           JUNCTION     0.59     1.65     8.72     0  01:37        1.32
  YS02001619           JUNCTION     1.38     1.61     8.54     0  01:31        1.50
  YS02001629           JUNCTION     1.73     1.85     8.40     0  01:31        1.84
  YS02001641           JUNCTION     1.82     1.96     8.39     0  01:32        1.93
  YS02001644           JUNCTION     1.83     1.92     8.35     0  01:32        1.92
  YS02001652           JUNCTION     1.69     2.16     8.76     0  01:33        2.03
  YS02001655           JUNCTION     1.45     2.20     9.05     0  01:32        1.99
  YS02001920           JUNCTION     0.68     1.66     8.66     0  01:39        1.41
  YS02001923           JUNCTION     0.49     1.47     8.73     0  01:39        1.18
  YS02001926           JUNCTION     0.48     1.24     8.68     0  01:39        1.19
  YS02001929           JUNCTION     0.31     0.90     8.59     0  01:39        0.87
  YS02001658           JUNCTION     1.18     2.30     9.44     0  01:32        1.94
  YS02001661           JUNCTION     0.94     2.46     9.86     0  01:33        1.94
  YS02001664           JUNCTION     0.43     0.72     8.64     0  01:33        0.68
  YS02001622           JUNCTION     1.40     1.62     8.52     0  01:31        1.51
  YS02001633           JUNCTION     1.82     1.98     8.43     0  01:32        1.94
  YS02001649           JUNCTION     1.89     2.05     8.44     0  01:32        2.05
  YS02001757           JUNCTION     2.01     2.21     8.47     0  01:32        2.21
  YS02001895           JUNCTION     0.84     1.57     8.32     0  01:37        1.56
  YS02001625           JUNCTION     1.68     1.78     8.38     0  01:31        1.78
  YS02163301           JUNCTION     1.76     1.90     8.42     0  01:32        1.88
  YS02163601           JUNCTION     1.87     2.03     8.43     0  01:32        1.98
  YS02164001           JUNCTION     1.81     1.96     8.42     0  01:32        1.91
  YS02001647           JUNCTION     1.66     1.84     8.45     0  01:32        1.79
  YSB1154              JUNCTION     0.31     0.61     9.67     0  01:34        0.61
  YSB6556              JUNCTION     0.20     0.50     9.67     0  01:34        0.50
  YSB1174              JUNCTION     0.26     0.56     9.67     0  01:34        0.56
  YSB1171              JUNCTION     0.46     0.76     9.67     0  01:34        0.76
  YS02006553           JUNCTION     1.26     2.15     8.43     0  01:39        1.97
  YS02006561           JUNCTION     0.55     1.75     8.41     0  01:39        1.09
  YS02006556           JUNCTION     1.23     2.35     8.66     0  01:39        1.93
  YS02006558           JUNCTION     1.27     2.47     8.74     0  01:39        1.98
  YS02001783           JUNCTION     0.83     2.28     8.42     0  01:39        1.48
  YS02001784           JUNCTION     0.82     2.29     8.36     0  01:39        1.43
  YS02001786           JUNCTION     0.72     2.23     8.26     0  01:39        1.26
  YS02001788           JUNCTION     0.63     2.28     8.26     0  01:39        1.13
  YS02001790           JUNCTION     0.74     1.96     7.60     0  01:39        1.29
  YS02001791           JUNCTION     0.70     1.94     7.41     0  01:39        1.27
  YS02001793           JUNCTION     0.95     1.94     6.77     0  01:39        1.80
  WS02004139           JUNCTION     0.49     0.70     5.61     0  01:40        0.69
  WSC                  OUTFALL      0.30     0.44     1.11     0  01:44        0.44
  3                    OUTFALL      0.18     0.24     6.24     0  01:50        0.24
  4                    OUTFALL      0.03     0.19     7.19     0  01:37        0.19
  5                    OUTFALL      0.00     0.00     5.00     0  00:00        0.00
  JK-storage           STORAGE      3.19     5.80     6.60     0  01:39        5.80
  CC-storage           STORAGE      1.23     1.46     8.46     0  03:04        1.46
  XR-storage           STORAGE      7.41     7.72     5.72     0  01:48        7.72
  
  
  *******************
  Node Inflow Summary
  *******************
  
  -------------------------------------------------------------------------------------------------
                                  Maximum  Maximum                  Lateral       Total        Flow
                                  Lateral    Total  Time of Max      Inflow      Inflow     Balance
                                   Inflow   Inflow   Occurrence      Volume      Volume       Error
  Node                 Type           LPS      LPS  days hr:min    10^6 ltr    10^6 ltr     Percent
  -------------------------------------------------------------------------------------------------
  WS02001211           JUNCTION      7.35   292.68     0  01:34       0.207        3.98       0.588
  WS02001212           JUNCTION      0.00   292.71     0  01:34           0        3.96       0.336
  WS02001213           JUNCTION      0.00   292.84     0  01:33           0        3.94       0.431
  WS02003069           JUNCTION      0.32  1158.95     0  01:42     0.00902        15.1       0.161
  WS02003072           JUNCTION      0.00  1158.69     0  01:43           0          15       0.205
  WS02003073           JUNCTION      1.82  1160.69     0  01:43      0.0514        15.1       0.223
  WS02003060           JUNCTION     16.53  1158.71     0  01:42       0.466        15.1       0.152
  WS02003066           JUNCTION      0.00   873.27     0  01:39           0        10.7       0.043
  WS02003059           JUNCTION      0.00   292.92     0  01:31           0        3.93       0.808
  WS02003067           JUNCTION      0.00   873.16     0  01:39           0        10.7       0.089
  WS02004401           JUNCTION      0.00   881.96     0  01:36           0          11       0.200
  WS02004402           JUNCTION      0.00   881.81     0  01:36           0          11       0.188
  WS02004403           JUNCTION      0.00   881.72     0  01:36           0        10.9       0.170
  WS02004404           JUNCTION      0.16   882.04     0  01:35     0.00457        10.9       0.128
  WS02004406           JUNCTION      0.00   882.19     0  01:36           0        10.9       0.310
  WS02004409           JUNCTION      0.00   881.84     0  01:36           0        10.8       0.159
  WS02004410           JUNCTION      0.00   874.45     0  01:37           0        10.8       0.178
  WS02004411           JUNCTION      0.00   873.15     0  01:38           0        10.8       0.182
  WS02004412           JUNCTION      0.00   872.93     0  01:38           0        10.8       0.195
  WS02004413           JUNCTION      0.00   873.26     0  01:39           0        10.8       0.287
  WS02004405           JUNCTION      0.04   882.11     0  01:35     0.00107        10.9       0.191
  WS02006109           JUNCTION      1.23   860.54     0  01:33      0.0347          11       0.191
  WS02006110           JUNCTION      0.00   860.49     0  01:33           0        10.9       0.183
  WS02006111           JUNCTION      0.00   869.34     0  01:31           0        10.9       0.039
  WS02006112           JUNCTION     34.22   882.16     0  01:35       0.151          11       0.265
  WS02006113           JUNCTION      0.00   860.53     0  01:33           0        10.9       0.097
  WS02006115           JUNCTION      0.00   882.24     0  01:35           0          11       0.191
  WS02006116           JUNCTION      0.00   881.99     0  01:36           0          11       0.171
  WS02006230           JUNCTION     10.28   355.56     0  03:31        0.29         6.9       0.211
  WS02006231           JUNCTION      0.00   343.78     0  03:31           0         6.6       0.144
  WS02006232           JUNCTION      0.00   343.61     0  03:31           0        6.59       0.248
  WS02006234           JUNCTION      0.00   342.65     0  03:31           0        6.59       0.141
  WS02006235           JUNCTION      0.00   342.00     0  03:31           0        6.71       0.141
  WS02006238           JUNCTION      0.00   242.86     0  03:25           0        4.51       0.177
  WS02006240           JUNCTION      0.00   240.35     0  03:25           0        4.49       0.259
  WS02006242           JUNCTION      0.00   239.46     0  03:23           0        4.49       0.343
  WS02006243           JUNCTION      0.00   285.44     0  01:30           0        4.49       0.203
  WS02006245           JUNCTION      0.00   306.54     0  01:30           0         4.5       0.188
  WS02006247           JUNCTION      0.00   325.15     0  01:30           0        4.51       0.159
  WS02006248           JUNCTION      0.00   338.68     0  01:30           0        4.51       0.104
  WS02006249           JUNCTION      0.00   380.83     0  01:32           0        5.43       0.176
  WS02006239           JUNCTION      0.00   241.68     0  03:25           0        4.49       0.260
  WS02006251           JUNCTION      0.08   390.55     0  01:32     0.00217        5.43       0.159
  WS02006252           JUNCTION      0.00   200.00     0  01:40           0         4.6       0.009
  WS02006253           JUNCTION      4.74   178.63     0  01:36      0.0174       0.835       0.419
  WS02006256           JUNCTION      0.00   624.43     0  01:50           0        12.1       0.028
  WS02004138           JUNCTION      0.00   285.00     0  00:20           0        3.79       0.080
  WS02004407           JUNCTION      0.00   882.50     0  01:36           0        10.9       0.071
  WS02006228           JUNCTION      0.00   859.35     0  01:33           0        10.9       0.140
  WS02006229           JUNCTION      0.00   867.93     0  01:33           0          11       0.131
  WS02006280           JUNCTION      0.00   821.06     0  01:36           0        4.12       0.003
  WS02006284           JUNCTION      0.10   821.01     0  01:36      0.0027        4.12       0.018
  WS02006287           JUNCTION      0.00   820.88     0  01:36           0        4.12       0.018
  WSF200               JUNCTION      0.00   873.33     0  01:39           0        10.7       0.043
  HS02004901           JUNCTION     41.69    41.69     0  01:31       0.183       0.183       0.971
  HS02004881           JUNCTION     17.57   174.51     0  01:36      0.0714       0.818       0.073
  HS02004876           JUNCTION     30.53   157.86     0  01:36       0.138       0.747       0.075
  HS02004870           JUNCTION     32.08   127.64     0  01:36       0.135       0.609       0.018
  HS02004862           JUNCTION     28.49    96.84     0  01:37       0.155       0.474       0.037
  HS02004856           JUNCTION     23.95    68.40     0  01:36       0.102        0.32       0.454
  HS02004852           JUNCTION      0.00    45.39     0  01:37           0       0.218       0.028
  HS02004848           JUNCTION     61.76    61.76     0  01:40       0.354       0.354       0.013
  HS02004842           JUNCTION      0.00    18.52     0  01:52           0       0.149       9.567
  HS02004837           JUNCTION     59.75    74.34     0  01:37       0.414        0.55       0.147
  HS02004830           JUNCTION      0.15    74.45     0  01:37     0.00423        0.54       0.230
  HS02004824           JUNCTION     72.88   147.21     0  01:40        0.43       0.969       0.056
  HS02004817           JUNCTION      0.60   150.74     0  01:42      0.0169       0.985       1.724
  HS02004807           JUNCTION     59.71   206.13     0  01:37       0.248        1.22       0.359
  HS02004802           JUNCTION      0.00   204.77     0  01:39           0        1.22       0.328
  HS02004799           JUNCTION     47.08   525.51     0  01:33       0.201         2.5       0.119
  HS02004792           JUNCTION    203.19   478.62     0  01:33       0.982         2.3       0.016
  HS02004788           JUNCTION     66.25   277.11     0  01:34       0.351        1.32       0.029
  HS02004785           JUNCTION      0.15   210.94     0  01:33     0.00423       0.971       0.053
  HS02004777           JUNCTION      0.03   211.17     0  01:32    0.000846       0.971       0.540
  HS02004770           JUNCTION    171.10   212.05     0  01:32       0.791       0.972       0.316
  HS02004480           JUNCTION      0.00   623.60     0  01:34           0        2.92       0.035
  HS02004479           JUNCTION      0.00    98.35     0  01:34           0       0.432       0.172
  HS02004478           JUNCTION      0.00   820.85     0  01:35           0        4.12       0.008
  YS02001745           JUNCTION    635.50   635.50     0  03:01        5.48        5.48       0.216
  YS02001748           JUNCTION      0.04   636.31     0  03:01     0.00127        5.47       0.413
  YS02001751           JUNCTION      0.01   636.35     0  03:01     0.00031        5.45       0.444
  YS02001754           JUNCTION      0.26   636.64     0  03:01     0.00733        5.44       0.446
  YS02001762           JUNCTION      0.00   383.22     0  01:43           0        2.99       0.706
  YS02001765           JUNCTION      0.00   383.32     0  01:43           0        2.99       0.818
  YS02001767           JUNCTION      0.54   383.33     0  01:43      0.0151        3.01       1.197
  YS02001770           JUNCTION    726.70  1062.76     0  03:01           6        7.55       0.415
  YS02001774           JUNCTION      0.00   851.17     0  02:56           0        5.88       0.424
  YS02001779           JUNCTION      0.01   851.17     0  02:56    0.000141        5.86       0.262
  YS02001882           JUNCTION      0.00    50.88     0  01:34           0      0.0277       8.713
  YS02001884           JUNCTION      0.00    58.17     0  01:32           0      0.0648      11.468
  YS02001759           JUNCTION    688.01   891.13     0  01:47        5.55        6.96       0.327
  YS02001887           JUNCTION    787.85   787.85     0  03:01        6.23        6.26       0.147
  YS02001890           JUNCTION      0.00   787.88     0  03:01           0        6.21       0.155
  YS02001898           JUNCTION      0.00   570.08     0  01:38           0        5.24       0.063
  YS02001901           JUNCTION      0.00   570.31     0  01:38           0        5.24       0.135
  YS02001904           JUNCTION      0.00   570.38     0  01:38           0        5.24       0.119
  YS02001907           JUNCTION      0.00  1384.51     0  03:01           0        13.2       0.192
  YS02001910           JUNCTION      0.00   868.05     0  03:01           0        7.96       0.166
  YS02001915           JUNCTION    536.93   868.02     0  03:01        4.53        8.02       0.076
  YS02001918           JUNCTION      0.00   356.72     0  01:39           0        3.52       0.051
  YS02001619           JUNCTION    541.58   541.58     0  03:01        4.58        4.58       0.267
  YS02001629           JUNCTION      0.00   389.69     0  01:31           0        1.87       1.526
  YS02001641           JUNCTION      0.00   451.55     0  01:32           0        5.95       0.352
  YS02001644           JUNCTION    611.54  1882.08     0  03:01         5.3          18       0.144
  YS02001652           JUNCTION      0.00   607.55     0  03:01           0        4.73       0.477
  YS02001655           JUNCTION      0.15   607.54     0  03:01     0.00434        4.76       0.533
  YS02001920           JUNCTION      2.87   356.75     0  01:39      0.0809         3.5       0.098
  YS02001923           JUNCTION      0.04   333.56     0  03:01     0.00106         3.4       0.042
  YS02001926           JUNCTION      0.05   330.50     0  03:01     0.00147        3.38       0.105
  YS02001929           JUNCTION    330.66   330.66     0  03:01        3.37        3.37       0.022
  YS02001658           JUNCTION      0.00   607.37     0  03:01           0        4.77       0.463
  YS02001661           JUNCTION      0.00   801.77     0  01:49           0        5.43       0.118
  YS02001664           JUNCTION    606.27   606.27     0  03:01        4.78        5.44       0.106
  YS02001622           JUNCTION      0.00   541.60     0  03:01           0        4.57       0.695
  YS02001633           JUNCTION    625.57   625.57     0  03:01        5.46        6.65       0.481
  YS02001649           JUNCTION      0.00  1363.16     0  03:01           0        9.58       0.384
  YS02001757           JUNCTION      0.00  2171.87     0  01:48           0        12.6       0.727
  YS02001895           JUNCTION      0.00   569.87     0  01:38           0        5.25       0.114
  YS02001625           JUNCTION      0.00   743.58     0  03:01           0        5.19       0.772
  YS02163301           JUNCTION      0.00   313.77     0  01:30           0        1.87       1.289
  YS02163601           JUNCTION      0.11   451.47     0  01:32      0.0031        5.95       0.504
  YS02164001           JUNCTION      0.00   451.56     0  01:32           0        5.94       0.336
  YS02001647           JUNCTION      0.00   846.70     0  03:02           0        7.62       0.371
  YSB1154              JUNCTION     54.28    54.28     0  01:34       0.243       0.243       0.595
  YSB6556              JUNCTION      0.00    54.37     0  01:35           0       0.244       0.519
  YSB1174              JUNCTION     46.17    46.17     0  01:30        0.18       0.181       0.711
  YSB1171              JUNCTION      0.00    98.46     0  01:34           0       0.431       1.496
  YS02006553           JUNCTION      0.00   699.74     0  03:50           0        7.67       0.210
  YS02006561           JUNCTION      0.00  1145.48     0  01:39           0        13.4       0.006
  YS02006556           JUNCTION      0.00   699.76     0  03:50           0        7.68       0.152
  YS02006558           JUNCTION    724.98  1145.76     0  01:39         5.8        13.4       0.040
  YS02001783           JUNCTION      0.00  1145.45     0  01:39           0        13.4       0.022
  YS02001784           JUNCTION      1.06  1146.69     0  01:39      0.0299        13.4       0.033
  YS02001786           JUNCTION      0.06  1146.55     0  01:39     0.00159        13.4       0.031
  YS02001788           JUNCTION      0.07  1147.84     0  01:39       0.002        13.4       0.017
  YS02001790           JUNCTION      0.15  1152.78     0  01:39     0.00437        13.4       0.023
  YS02001791           JUNCTION      0.00  1236.35     0  01:38           0        13.4       0.009
  YS02001793           JUNCTION      0.00  1151.51     0  01:38           0        13.4       0.003
  WS02004139           JUNCTION      0.32   285.35     0  00:20     0.00905         3.8       0.662
  WSC                  OUTFALL       0.00  1160.98     0  01:44           0          15       0.000
  3                    OUTFALL       0.00   624.59     0  01:50           0        9.85       0.000
  4                    OUTFALL       0.00   294.76     0  01:37           0       0.904       0.000
  5                    OUTFALL       0.00     0.00     0  00:00           0           0       0.000 ltr
  JK-storage           STORAGE       0.00  1074.24     0  01:39           0        13.6     -12.293
  CC-storage           STORAGE       0.00  2171.93     0  01:48           0        8.41       0.775
  XR-storage           STORAGE    1408.02  1408.02     0  03:01        16.7        17.3      -0.001
  
  
  **********************
  Node Surcharge Summary
  **********************
  
  Surcharging occurs when water rises above the top of the highest conduit.
  ---------------------------------------------------------------------
                                               Max. Height   Min. Depth
                                   Hours       Above Crown    Below Rim
  Node                 Type      Surcharged         Meters       Meters
  ---------------------------------------------------------------------
  WS02004401           JUNCTION        1.40          0.354        1.306
  WS02004402           JUNCTION        1.66          0.267        1.473
  WS02004403           JUNCTION        1.67          0.309        1.721
  WS02004404           JUNCTION        1.77          0.343        2.437
  WS02004406           JUNCTION        1.73          0.241        2.209
  WS02004405           JUNCTION        1.75          0.310        2.490
  WS02006109           JUNCTION        2.41          0.576        1.244
  WS02006110           JUNCTION        1.90          0.315        1.535
  WS02006112           JUNCTION        2.00          0.510        1.170
  WS02006115           JUNCTION        0.75          0.583        1.667
  WS02006116           JUNCTION        0.83          0.344        1.946
  WS02006230           JUNCTION        1.75          0.490        1.080
  WS02006231           JUNCTION        1.80          0.634        0.896
  WS02006232           JUNCTION        2.22          0.818        0.662
  WS02006234           JUNCTION        1.91          0.886        0.354
  WS02006235           JUNCTION        2.01          0.732        0.558
  WS02006238           JUNCTION        2.06          0.783        0.647
  WS02006240           JUNCTION        1.82          1.390        0.000
  WS02006242           JUNCTION        1.90          0.820        0.000
  WS02006243           JUNCTION        1.66          0.770        0.000
  WS02006245           JUNCTION        0.73          0.745        0.105
  WS02006247           JUNCTION        0.66          0.760        0.000
  WS02006248           JUNCTION        0.01          0.380        0.000
  WS02006239           JUNCTION        1.90          1.290        0.000
  WS02006228           JUNCTION        2.38          0.709        1.491
  HS02004817           JUNCTION        0.32          0.043        1.697
  YS02001745           JUNCTION        0.54          0.055        1.295
  YS02001748           JUNCTION        6.28          1.190        0.000
  YS02001751           JUNCTION        6.30          1.195        0.005
  YS02001754           JUNCTION        6.31          1.081        0.069
  YS02001762           JUNCTION        6.34          1.073        0.077
  YS02001765           JUNCTION        6.34          1.014        0.086
  YS02001767           JUNCTION        6.33          0.967        0.063
  YS02001770           JUNCTION        6.33          0.920        0.000
  YS02001774           JUNCTION        6.34          1.011        0.039
  YS02001779           JUNCTION        6.31          0.680        0.000
  YS02001882           JUNCTION        2.57          0.667        0.163
  YS02001884           JUNCTION        2.60          0.697        0.173
  YS02001759           JUNCTION        6.35          1.117        0.093
  YS02001887           JUNCTION        2.68          0.769        0.181
  YS02001890           JUNCTION        2.70          0.760        0.000
  YS02001898           JUNCTION        2.53          0.545        0.195
  YS02001901           JUNCTION        2.64          0.684        0.186
  YS02001904           JUNCTION        2.62          0.644        0.206
  YS02001907           JUNCTION        3.04          0.950        0.000
  YS02001910           JUNCTION        2.74          0.861        0.239
  YS02001915           JUNCTION        2.56          0.815        0.185
  YS02001918           JUNCTION        2.33          0.654        0.156
  YS02001619           JUNCTION        6.31          0.610        0.000
  YS02001629           JUNCTION        6.31          0.470        0.000
  YS02001641           JUNCTION        6.34          0.956        0.144
  YS02001644           JUNCTION        6.34          0.920        0.000
  YS02001652           JUNCTION        6.31          1.130        0.000
  YS02001655           JUNCTION        6.30          1.200        0.000
  YS02001920           JUNCTION        2.37          0.656        0.484
  YS02001923           JUNCTION        0.01          0.257        0.563
  YS02001926           JUNCTION        0.01          0.236        0.664
  YS02001658           JUNCTION        6.29          1.300        0.000
  YS02001661           JUNCTION        1.17          1.390        0.000
  YS02001622           JUNCTION        6.31          0.620        0.000
  YS02001633           JUNCTION        6.33          0.957        0.103
  YS02001649           JUNCTION        6.34          1.050        0.000
  YS02001757           JUNCTION        6.36          1.210        0.000
  YS02001895           JUNCTION        2.54          0.571        0.179
  YS02001625           JUNCTION        6.32          0.780        0.000
  YS02163301           JUNCTION        6.33          0.900        0.130
  YS02163601           JUNCTION        6.34          1.030        0.050
  YS02164001           JUNCTION        6.33          0.959        0.141
  YS02001647           JUNCTION        6.31          0.840        0.060
  YS02006553           JUNCTION        3.08          1.151        0.039
  YS02006561           JUNCTION        2.42          0.953        0.197
  YS02006556           JUNCTION        2.90          1.311        0.039
  YS02006558           JUNCTION        2.87          1.374        0.026
  YS02001783           JUNCTION        2.93          1.483        0.117
  YS02001784           JUNCTION        2.94          1.490        0.000
  YS02001786           JUNCTION        2.87          1.430        0.000
  YS02001788           JUNCTION        2.82          1.480        0.000
  YS02001790           JUNCTION        3.01          1.157        0.000
  YS02001791           JUNCTION        3.06          1.137        0.783
  YS02001793           JUNCTION        3.17          0.940        1.660
  
  
  *********************
  Node Flooding Summary
  *********************
  
  Flooding refers to all water that overflows a node, whether it ponds or not.
  --------------------------------------------------------------------------
                                                             Total   Maximum
                                 Maximum   Time of Max       Flood    Ponded
                        Hours       Rate    Occurrence      Volume     Depth
  Node                 Flooded       LPS   days hr:min    10^6 ltr    Meters
  --------------------------------------------------------------------------
  WS02006240              0.01    124.41      0  01:29       0.000     0.000
  WS02006242              0.01    148.66      0  01:30       0.000     0.000
  WS02006243              0.01    207.00      0  01:30       0.000     0.000
  WS02006247              0.01    170.07      0  01:30       0.000     0.000
  WS02006248              0.01    126.23      0  01:30       0.000     0.000
  WS02006239              0.01     72.86      0  01:29       0.000     0.000
  YS02001748              0.01    231.25      0  01:32       0.000     0.000
  YS02001770              0.63    211.59      0  03:01       0.199     0.000
  YS02001779              4.21    851.17      0  02:56       5.841     0.000
  YS02001890              1.65    271.46      0  03:01       0.959     0.000
  YS02001907              2.19   1136.82      0  03:01       5.515     0.000
  YS02001619              0.01     98.80      0  01:31       0.000     0.000
  YS02001629              0.01    382.15      0  01:31       0.005     0.000
  YS02001644              6.28   1882.07      0  03:01      17.068     0.000
  YS02001652              0.01     19.44      0  01:39       0.000     0.000
  YS02001655              0.01     34.79      0  01:32       0.000     0.000
  YS02001658              0.01    357.46      0  01:32       0.000     0.000
  YS02001661              0.01    180.62      0  01:39       0.000     0.000
  YS02001622              0.01    119.76      0  01:31       0.000     0.000
  YS02001649              1.00    516.45      0  03:01       0.959     0.000
  YS02001757              0.01     18.23      0  01:32       0.000     0.000
  YS02001625              2.87    743.58      0  03:01       3.935     0.000
  YS02001784              0.01      3.09      0  01:39       0.000     0.000
  YS02001786              0.01     20.64      0  01:39       0.000     0.000
  YS02001788              0.01    199.16      0  01:39       0.000     0.000
  YS02001790              0.01    225.29      0  01:39       0.000     0.000
  JK-storage              2.82    729.23      0  01:39       3.455     0.000
  XR-storage              6.03   1312.98      0  03:01      12.604     0.000
  
  
  **********************
  Storage Volume Summary
  **********************
  
  --------------------------------------------------------------------------------------------------
                         Average     Avg  Evap Exfil       Maximum     Max    Time of Max    Maximum
                          Volume    Pcnt  Pcnt  Pcnt        Volume    Pcnt     Occurrence    Outflow
  Storage Unit           1000 m3    Full  Loss  Loss       1000 m3    Full    days hr:min        LPS
  --------------------------------------------------------------------------------------------------
  JK-storage               0.160      55     0     0         0.291     100       0  01:39     600.00
  CC-storage               3.430      22     0     0         4.072      26       0  03:04     200.00
  XR-storage               0.889      96     0     0         0.926     100       0  01:48     285.00
  
  
  ***********************
  Outfall Loading Summary
  ***********************
  
  -----------------------------------------------------------
                         Flow       Avg       Max       Total
                         Freq      Flow      Flow      Volume
  Outfall Node           Pcnt       LPS       LPS    10^6 ltr
  -----------------------------------------------------------
  WSC                  100.00    586.85   1160.98      15.030
  3                     97.45    429.25    624.59       9.850
  4                     30.93    128.21    294.76       0.904
  5                      0.00      0.00      0.00       0.000
  -----------------------------------------------------------
  System                57.09   1144.31   1929.44      25.784
  
  
  ********************
  Link Flow Summary
  ********************
  
  -----------------------------------------------------------------------------
                                 Maximum  Time of Max   Maximum    Max/    Max/
                                  |Flow|   Occurrence   |Veloc|    Full    Full
  Link                 Type          LPS  days hr:min     m/sec    Flow   Depth
  -----------------------------------------------------------------------------
  WS02003066WSF200     CONDUIT    873.33     0  01:39      3.07    0.15    0.30
  WS02006287WS02006284 CONDUIT    820.91     0  01:36      2.53    0.38    0.43
  WS02006284WS02006280 CONDUIT    821.06     0  01:36      2.76    0.34    0.40
  WS02006280WS02006229 CONDUIT    821.17     0  01:36      4.36    0.18    0.35
  WS02006229WS02006228 CONDUIT    859.35     0  01:33      1.71    2.85    1.00
  WS02006256WS02006235 CONDUIT    166.25     0  00:01      2.58    1.76    1.00
  WS02006253WS02006251 CONDUIT    190.47     0  01:32      0.69    0.57    0.99
  WS02006252WS02006251 CONDUIT    201.70     0  01:27      1.97    0.74    0.76
  WS02006251WS02006249 CONDUIT    380.83     0  01:32      1.11    1.10    0.99
  WS02006249WS02006248 CONDUIT    338.68     0  01:30      1.19    1.86    0.97
  WS02006248WS02006247 CONDUIT    325.15     0  01:30      1.16    0.71    1.00
  WS02006247WS02006245 CONDUIT    306.54     0  01:30      1.12    2.43    1.00
  WS02006245WS02006243 CONDUIT    285.44     0  01:30      1.18    0.84    1.00
  WS02006243WS02006242 CONDUIT    239.46     0  03:23      0.82    0.51    1.00
  WS02006242WS02006240 CONDUIT    240.35     0  03:25      0.65    0.95    1.00
  WS02006240WS02006239 CONDUIT    241.68     0  03:25      0.67    0.76    1.00
  WS02006239WS02006238 CONDUIT    242.86     0  03:25      0.67    0.78    1.00
  WS02006238WS02006235 CONDUIT    242.99     0  03:25      1.25    0.54    1.00
  WS02006235WS02006234 CONDUIT    342.65     0  03:31      0.95    3.62    1.00
  WS02006234WS02006232 CONDUIT    343.61     0  03:31      1.13    0.70    1.00
  WS02006232WS02006231 CONDUIT    343.78     0  03:31      0.95    0.72    1.00
  WS02006231WS02006230 CONDUIT    345.28     0  03:31      1.30    5.24    1.00
  WS02006230WS02006229 CONDUIT    357.59     0  03:30      0.93    7.96    1.00
  WS02006228WS02006109 CONDUIT    859.31     0  01:33      1.71    3.75    1.00
  WS02006116WS02004401 CONDUIT    881.96     0  01:36      1.12    1.22    1.00
  WS02006115WS02006116 CONDUIT    881.99     0  01:36      1.12    1.13    1.00
  WS02006113WS02006111 CONDUIT    869.34     0  01:31      2.72    1.04    0.94
  WS02006112WS02006115 CONDUIT    882.24     0  01:35      1.12    0.52    1.00
  WS02006111WS02006112 CONDUIT    849.66     0  01:35      1.94    0.40    0.97
  WS02006110WS02006113 CONDUIT    860.53     0  01:33      1.86    0.78    0.96
  WS02006109WS02006110 CONDUIT    860.49     0  01:33      1.71    1.65    1.00
  WS02004411WS02004412 CONDUIT    872.93     0  01:38      1.20    1.24    0.88
  WS02004401WS02004402 CONDUIT    881.81     0  01:36      1.12    1.06    1.00
  WS02004413WS02003067 CONDUIT    873.16     0  01:39      1.46    0.37    0.71
  WS02004412WS02004413 CONDUIT    873.26     0  01:39      1.15    0.58    0.93
  WS02004410WS02004411 CONDUIT    873.15     0  01:38      1.21    1.19    0.89
  WS02004409WS02004410 CONDUIT    874.45     0  01:37      1.28    1.13    0.90
  WS02004407WS02004409 CONDUIT    881.84     0  01:36      1.86    0.31    0.64
  WS02004406WS02004407 CONDUIT    882.50     0  01:36      1.52    0.39    0.69
  WS02004405WS02004406 CONDUIT    882.19     0  01:36      1.12    1.74    1.00
  WS02004404WS02004405 CONDUIT    882.08     0  01:35      1.12    8.64    1.00
  WS02004403WS02004404 CONDUIT    881.88     0  01:35      1.12    0.64    1.00
  WS02004402WS02004403 CONDUIT    881.72     0  01:36      1.12    1.27    1.00
  WS02004139WS02001211 CONDUIT    285.33     0  01:34      0.69    0.36    0.56
  WS02004138WS02004139 CONDUIT    285.03     0  00:20      2.94    0.06    0.40
  WS02003067WS02003066 CONDUIT    873.27     0  01:39      1.59    0.28    0.49
  WS02001213WS02003059 CONDUIT    292.92     0  01:31      0.65    0.48    0.80
  WS02001212WS02001213 CONDUIT    292.84     0  01:33      1.19    0.45    0.48
  WS02001211WS02001212 CONDUIT    292.71     0  01:34      0.67    0.22    0.63
  WS02003072WS02003073 CONDUIT   1158.86     0  01:43      1.86    2.50    0.54
  WS02003069WS02003072 CONDUIT   1158.69     0  01:43      1.74    0.56    0.57
  WS02003060WS02003069 CONDUIT   1158.63     0  01:42      1.96    0.45    0.52
  WS02003059WS02003060 CONDUIT    293.54     0  01:30      0.82    0.19    0.71
  HS02004901HS02004770 CONDUIT     40.98     0  01:33      0.10    0.15    0.57
  HS02004876HS02004881 CONDUIT    157.88     0  01:36      1.33    1.68    0.17
  HS02004870HS02004876 CONDUIT    127.61     0  01:36      0.90    0.08    0.20
  HS02004842HS02004848 CONDUIT     18.52     0  01:52      0.08    0.01    0.35
  HS02004837HS02004842 CONDUIT     18.98     0  01:52      0.41    0.01    0.36
  HS02004830HS02004837 CONDUIT     74.30     0  01:37      0.68    0.07    0.16
  HS02004824HS02004830 CONDUIT     75.09     0  01:38      0.62    0.10    0.21
  HS02004817HS02004824 CONDUIT    150.14     0  01:42      0.35    0.07    0.62
  HS02004770HS02004777 CONDUIT    211.14     0  01:32      0.52    0.39    0.58
  HS02004799HS02004480 CONDUIT    525.37     0  01:34      1.14    0.66    0.66
  HS02004792HS02004799 CONDUIT    478.53     0  01:33      1.27    0.29    0.54
  HS02004788HS02004792 CONDUIT    277.00     0  01:34      1.34    0.18    0.30
  HS02004785HS02004788 CONDUIT    210.88     0  01:34      0.96    1.59    0.31
  HS02004777HS02004785 CONDUIT    210.79     0  01:33      0.62    0.26    0.49
  HS02004480HS02004478 CONDUIT    623.55     0  01:34      1.66    2.63    0.54
  HS02004479HS02004480 CONDUIT     98.64     0  01:35      0.34    0.10    0.63
  HS02004862HS02004870 CONDUIT     96.84     0  01:37      0.86    0.10    0.16
  HS02004848HS02004852 CONDUIT     45.39     0  01:37      0.56    0.05    0.12
  HS02004856HS02004862 CONDUIT     68.36     0  01:37      0.64    0.07    0.15
  HS02004852HS02004856 CONDUIT     45.48     0  01:38      0.37    0.05    0.18
  HS02004802HS02004478 CONDUIT    205.88     0  01:39      0.56    0.18    0.54
  HS02004478WS02006287 CONDUIT    820.88     0  01:36      2.26    0.23    0.40
  HS02004817HS02004807 CONDUIT    151.19     0  01:40      0.28    0.09    0.79
  HS02004807HS02004802 CONDUIT    204.77     0  01:39      0.50    0.39    0.59
  YS02001759YS02001757 CONDUIT    891.14     0  01:47      1.13    0.63    1.00
  YS02001762YS02001759 CONDUIT    383.34     0  01:43      0.49    0.44    1.00
  YS02001765YS02001762 CONDUIT    383.22     0  01:43      0.49    0.36    1.00
  YS02001770YS02001767 CONDUIT    382.79     0  01:43      0.49    1.52    1.00
  YS02001774YS02001770 CONDUIT    851.17     0  02:56      1.08    0.54    1.00
  YS02001779YS02001774 CONDUIT    851.17     0  02:56      1.08    0.43    1.00
  YS02001649YS02001757 CONDUIT    904.43     0  01:46      1.15    0.55    1.00
  YS02001767YS02001765 CONDUIT    383.32     0  01:43      0.49    0.48    1.00
  YS02006561YS02001783 CONDUIT   1145.45     0  01:39      2.28    0.59    1.00
  YS02001783YS02001784 CONDUIT   1145.63     0  01:39      2.28    1.58    1.00
  YS02001784YS02001785 CONDUIT   1146.50     0  01:39      2.28    2.67    1.00
  YS02001788YS02001790 CONDUIT   1152.62     0  01:39      2.71    0.85    1.00
  YS02001790YS02001791 CONDUIT   1236.35     0  01:38      3.39    1.35    1.00
  YS02001791YS02001793 CONDUIT   1151.51     0  01:38      6.37    0.49    1.00
  YS02001910YS02001907 CONDUIT    868.12     0  03:01      1.11    0.49    1.00
  YS02001786YS02001788 CONDUIT   1147.77     0  01:39      2.46    2.21    1.00
  YS02001915YS02001910 CONDUIT    868.05     0  03:01      1.11    0.43    1.00
  YS02001918YS02001915 CONDUIT    356.81     0  01:39      0.57    0.20    1.00
  YS02001923YS02001920 CONDUIT    353.88     0  01:39      0.89    0.16    1.00
  YS02001926YS02001923 CONDUIT    333.52     0  03:01      0.95    0.48    1.00
  YS02001929YS02001926 CONDUIT    330.45     0  03:01      1.03    0.16    0.95
  YS02001920YS02001918 CONDUIT    356.72     0  01:39      0.84    0.35    1.00
  YS02001629YS02163301 CONDUIT    298.54     0  01:30      0.38    0.37    1.00
  YS02001619YS02001622 CONDUIT    541.60     0  03:01      0.90    0.80    1.00
  YS02001622YS02001625 CONDUIT    541.67     0  03:01      0.69    0.29    1.00
  YS02001625YS02001629 CONDUIT    301.58     0  01:30      0.44    0.14    1.00
  YS02163301YS02001633 CONDUIT    313.77     0  01:30      0.40    0.29    1.00
  YS02163601YS02164001 CONDUIT    451.56     0  01:32      0.57    0.40    1.00
  YS02164001YS02001641 CONDUIT    451.55     0  01:32      0.57    0.62    1.00
  YS02001641YS02001644 CONDUIT    451.88     0  01:32      0.58    1.46    1.00
  YS02001647YS02001649 CONDUIT    846.70     0  03:02      1.08    0.45    1.00
  YS02006553YS02006556 CONDUIT    699.76     0  03:50      0.89    0.60    1.00
  YS02006556YS02006558 CONDUIT    699.81     0  03:50      0.89    0.55    1.00
  YSB6556YSB1171       CONDUIT     54.78     0  01:35      0.16    0.06    0.86
  YS02001907YS02006553 CONDUIT    699.74     0  03:50      0.78    0.82    1.00
  YS02006558YS02006561 CONDUIT   1145.48     0  01:39      4.05    2.53    1.00
  YS02001633YS02163601 CONDUIT    451.36     0  01:32      0.57    0.47    1.00
  YS02001644YS02001647 CONDUIT    846.70     0  03:02      1.08    0.50    1.00
  YS02001745YS02001748 CONDUIT    636.26     0  03:01      1.90    0.24    1.00
  YS02001748YS02001751 CONDUIT    636.34     0  03:01      1.44    0.32    1.00
  YS02001751YS02001754 CONDUIT    636.38     0  03:01      1.17    0.31    1.00
  YS02001754YS02001757 CONDUIT    636.69     0  03:01      0.81    0.26    1.00
  YS02001882YS02001884 CONDUIT     50.88     0  01:34      0.18    0.06    1.00
  YS02001884YS02001887 CONDUIT     58.17     0  01:32      0.14    0.08    1.00
  YS02001890YS02001895 CONDUIT    569.87     0  01:38      0.73    0.27    1.00
  YS02001895YS02001898 CONDUIT    570.08     0  01:38      0.73    0.99    1.00
  YS02001898YS02001901 CONDUIT    570.31     0  01:38      0.73    0.37    1.00
  YS02001901YS02001904 CONDUIT    570.38     0  01:38      0.73    0.88    1.00
  YS02001904YS02001907 CONDUIT    570.50     0  01:38      0.73    0.20    1.00
  YS02001887YS02001890 CONDUIT    787.88     0  03:01      1.00    1.35    1.00
  YS02001652YS02001649 CONDUIT    607.55     0  03:01      0.77    0.30    1.00
  YS02001655YS02001652 CONDUIT    607.55     0  03:01      1.26    0.30    1.00
  YS02001658YS02001655 CONDUIT    607.38     0  03:01      1.67    0.26    1.00
  YS02001661YS02001658 CONDUIT    607.37     0  03:01      2.02    0.24    1.00
  YS02001664YS02001661 CONDUIT    801.77     0  01:49      1.90    0.25    0.86
  YSB1154YSB6556       CONDUIT     54.37     0  01:35      0.17    0.10    0.79
  YSB1174YSB1171       CONDUIT     45.32     0  01:31      0.13    0.07    0.90
  YSB1171HS02004479    CONDUIT     98.35     0  01:34      0.54    0.07    0.73
  HS02004881HS02006253 CONDUIT    174.50     0  01:36      2.52    0.03    0.32
  YS02001793JiankangQianchi CONDUIT   1074.24     0  01:39     13.87    0.09    1.00
  YS02001757CaochengTiaoxuchi CONDUIT   2171.93     0  01:48      3.83    0.95    1.00
  WSF200WS02003060     CONDUIT    875.78     0  01:39      2.13    0.19    0.41
  1                    CONDUIT   1160.98     0  01:44      3.46    0.40    0.44
  2                    CONDUIT    294.76     0  01:37      6.39    0.71    0.62
  3                    CONDUIT    624.59     0  01:50     10.03    1.00    0.82
  4                    CONDUIT      0.00     0  00:00      0.00    0.00    0.00
  CC-Pump-1            PUMP       200.00     0  01:27              1.00
  CC-Pump-2            PUMP       200.00     0  01:50              1.00
  JK-Pump-1            PUMP       300.00     0  00:00              1.00
  JK-Pump-2            PUMP       300.00     0  01:27              1.00
  XR-Pump-1            PUMP        95.00     0  00:20              1.00
  XR-Pump-2            PUMP        95.00     0  00:00              1.00
  XR-Pump-3            PUMP        95.00     0  00:20              1.00
  XR-Pump-4            PUMP        95.00     0  00:00              1.00
  
  
  ***************************
  Flow Classification Summary
  ***************************
  
  -------------------------------------------------------------------------------------
                      Adjusted    ---------- Fraction of Time in Flow Class ---------- 
                       /Actual         Up    Down  Sub   Sup   Up    Down  Norm  Inlet 
  Conduit               Length    Dry  Dry   Dry   Crit  Crit  Crit  Crit  Ltd   Ctrl  
  -------------------------------------------------------------------------------------
  WS02003066WSF200        1.00   0.05  0.00  0.00  0.00  0.95  0.00  0.00  0.55  0.00
  WS02006287WS02006284    1.00   0.03  0.01  0.00  0.53  0.43  0.00  0.00  0.61  0.00
  WS02006284WS02006280    1.00   0.04  0.00  0.00  0.00  0.00  0.00  0.96  0.00  0.00
  WS02006280WS02006229    1.00   0.04  0.00  0.00  0.00  0.06  0.00  0.90  0.01  0.00
  WS02006229WS02006228    1.00   0.00  0.00  0.00  0.99  0.00  0.00  0.01  0.00  0.00
  WS02006256WS02006235    1.00   0.00  0.00  0.00  1.00  0.00  0.00  0.00  0.00  0.00
  WS02006253WS02006251    1.00   0.02  0.01  0.00  0.96  0.00  0.00  0.00  0.00  0.00
  WS02006252WS02006251    1.00   0.04  0.00  0.00  0.00  0.00  0.96  0.00  0.00  0.00
  WS02006251WS02006249    1.00   0.00  0.00  0.00  1.00  0.00  0.00  0.00  0.14  0.00
  WS02006249WS02006248    1.00   0.00  0.02  0.00  0.96  0.00  0.03  0.00  0.00  0.00
  WS02006248WS02006247    1.00   0.02  0.00  0.00  0.98  0.00  0.00  0.00  0.02  0.00
  WS02006247WS02006245    1.00   0.02  0.00  0.00  0.98  0.00  0.00  0.00  0.00  0.00
  WS02006245WS02006243    1.00   0.01  0.00  0.00  0.97  0.00  0.00  0.02  0.01  0.00
  WS02006243WS02006242    1.00   0.01  0.00  0.00  0.99  0.00  0.00  0.00  0.14  0.00
  WS02006242WS02006240    1.00   0.00  0.00  0.00  0.99  0.00  0.00  0.00  0.00  0.00
  WS02006240WS02006239    1.00   0.00  0.00  0.00  0.98  0.00  0.00  0.02  0.01  0.00
  WS02006239WS02006238    1.00   0.00  0.00  0.00  1.00  0.00  0.00  0.00  0.00  0.00
  WS02006238WS02006235    1.00   0.00  0.00  0.00  1.00  0.00  0.00  0.00  0.00  0.00
  WS02006235WS02006234    1.00   0.00  0.00  0.00  0.98  0.00  0.02  0.00  0.00  0.00
  WS02006234WS02006232    1.00   0.00  0.00  0.00  1.00  0.00  0.00  0.00  0.06  0.00
  WS02006232WS02006231    1.00   0.00  0.00  0.00  0.99  0.00  0.00  0.00  0.00  0.00
  WS02006231WS02006230    1.00   0.00  0.00  0.00  0.75  0.00  0.25  0.00  0.00  0.00
  WS02006230WS02006229    1.00   0.00  0.00  0.00  0.99  0.00  0.00  0.01  0.01  0.00
  WS02006228WS02006109    1.00   0.00  0.00  0.00  1.00  0.00  0.00  0.00  0.00  0.00
  WS02006116WS02004401    1.00   0.02  0.00  0.00  0.98  0.00  0.00  0.00  0.00  0.00
  WS02006115WS02006116    1.00   0.02  0.00  0.00  0.98  0.00  0.00  0.00  0.00  0.00
  WS02006113WS02006111    1.00   0.02  0.00  0.00  0.13  0.85  0.00  0.00  0.07  0.00
  WS02006112WS02006115    1.00   0.02  0.00  0.00  0.98  0.00  0.00  0.00  0.00  0.00
  WS02006111WS02006112    1.00   0.02  0.00  0.00  0.98  0.00  0.00  0.00  0.75  0.00
  WS02006110WS02006113    1.00   0.01  0.01  0.00  0.98  0.00  0.00  0.00  0.00  0.00
  WS02006109WS02006110    1.00   0.00  0.01  0.00  0.99  0.00  0.01  0.00  0.00  0.00
  WS02004411WS02004412    1.00   0.03  0.00  0.00  0.97  0.00  0.00  0.00  0.00  0.00
  WS02004401WS02004402    1.00   0.02  0.00  0.00  0.98  0.00  0.00  0.00  0.00  0.00
  WS02004413WS02003067    1.00   0.03  0.01  0.00  0.00  0.00  0.95  0.00  0.00  0.00
  WS02004412WS02004413    1.00   0.03  0.00  0.00  0.97  0.00  0.00  0.00  0.03  0.00
  WS02004410WS02004411    1.00   0.03  0.00  0.00  0.97  0.00  0.00  0.00  0.03  0.00
  WS02004409WS02004410    1.00   0.03  0.00  0.00  0.97  0.00  0.00  0.00  0.00  0.00
  WS02004407WS02004409    1.00   0.03  0.00  0.00  0.96  0.01  0.00  0.00  0.88  0.00
  WS02004406WS02004407    1.00   0.00  0.03  0.00  0.97  0.00  0.00  0.00  0.00  0.00
  WS02004405WS02004406    1.00   0.00  0.00  0.00  1.00  0.00  0.00  0.00  0.01  0.00
  WS02004404WS02004405    1.00   0.00  0.00  0.00  1.00  0.00  0.00  0.00  0.00  0.00
  WS02004403WS02004404    1.00   0.00  0.02  0.00  0.98  0.00  0.00  0.00  0.01  0.00
  WS02004402WS02004403    1.00   0.02  0.00  0.00  0.98  0.00  0.00  0.00  0.00  0.00
  WS02004139WS02001211    1.00   0.00  0.00  0.00  1.00  0.00  0.00  0.00  0.00  0.00
  WS02004138WS02004139    1.00   0.00  0.00  0.00  0.99  0.01  0.00  0.00  1.00  0.00
  WS02003067WS02003066    1.00   0.05  0.01  0.00  0.95  0.00  0.00  0.00  0.00  0.00
  WS02001213WS02003059    1.00   0.00  0.00  0.00  0.99  0.00  0.00  0.00  0.00  0.00
  WS02001212WS02001213    1.00   0.00  0.00  0.00  0.94  0.00  0.06  0.00  0.00  0.00
  WS02001211WS02001212    1.00   0.00  0.00  0.00  1.00  0.00  0.00  0.00  0.00  0.00
  WS02003072WS02003073    1.00   0.00  0.00  0.00  0.00  0.00  0.00  1.00  0.00  0.00
  WS02003069WS02003072    1.00   0.00  0.00  0.00  1.00  0.00  0.00  0.00  0.17  0.00
  WS02003060WS02003069    1.00   0.00  0.00  0.00  0.99  0.01  0.00  0.00  0.01  0.00
  WS02003059WS02003060    1.00   0.00  0.00  0.00  1.00  0.00  0.00  0.00  0.01  0.00
  HS02004901HS02004770    1.00   0.03  0.00  0.00  0.97  0.00  0.00  0.00  0.00  0.00
  HS02004876HS02004881    1.00   0.02  0.00  0.00  0.70  0.28  0.00  0.00  0.00  0.00
  HS02004870HS02004876    1.00   0.00  0.00  0.00  0.99  0.00  0.00  0.00  0.95  0.00
  HS02004842HS02004848    1.00   0.00  0.03  0.00  0.97  0.00  0.00  0.00  0.54  0.00
  HS02004837HS02004842    1.00   0.00  0.00  0.00  0.99  0.01  0.00  0.00  0.11  0.00
  HS02004830HS02004837    1.00   0.00  0.00  0.00  1.00  0.00  0.00  0.00  0.99  0.00
  HS02004824HS02004830    1.00   0.00  0.00  0.00  1.00  0.00  0.00  0.00  0.03  0.00
  HS02004817HS02004824    1.00   0.00  0.00  0.00  1.00  0.00  0.00  0.00  0.88  0.00
  HS02004770HS02004777    1.00   0.00  0.03  0.00  0.97  0.00  0.00  0.00  0.02  0.00
  HS02004799HS02004480    1.00   0.00  0.02  0.00  0.96  0.00  0.02  0.00  0.00  0.00
  HS02004792HS02004799    1.00   0.00  0.00  0.00  0.99  0.01  0.00  0.00  0.98  0.00
  HS02004788HS02004792    1.00   0.00  0.00  0.00  0.99  0.01  0.00  0.00  0.98  0.00
  HS02004785HS02004788    1.00   0.00  0.00  0.00  1.00  0.00  0.00  0.00  0.00  0.00
  HS02004777HS02004785    1.00   0.00  0.00  0.00  1.00  0.00  0.00  0.00  0.11  0.00
  HS02004480HS02004478    1.00   0.03  0.00  0.00  0.59  0.00  0.00  0.37  0.00  0.00
  HS02004479HS02004480    1.00   0.02  0.00  0.00  0.98  0.00  0.00  0.00  0.11  0.00
  HS02004862HS02004870    1.00   0.00  0.00  0.00  1.00  0.00  0.00  0.00  0.02  0.00
  HS02004848HS02004852    1.00   0.03  0.00  0.00  0.97  0.00  0.00  0.00  0.81  0.00
  HS02004856HS02004862    1.00   0.00  0.04  0.00  0.96  0.00  0.00  0.00  0.84  0.00
  HS02004852HS02004856    1.00   0.03  0.00  0.00  0.97  0.00  0.00  0.00  0.70  0.00
  HS02004802HS02004478    1.00   0.03  0.00  0.00  0.97  0.00  0.00  0.00  0.02  0.00
  HS02004478WS02006287    1.00   0.04  0.00  0.00  0.64  0.32  0.00  0.00  0.58  0.00
  HS02004817HS02004807    1.00   0.00  0.03  0.00  0.97  0.00  0.00  0.00  0.01  0.00
  HS02004807HS02004802    1.00   0.03  0.00  0.00  0.96  0.00  0.00  0.00  0.00  0.00
  YS02001759YS02001757    1.00   0.00  0.00  0.00  1.00  0.00  0.00  0.00  0.15  0.00
  YS02001762YS02001759    1.00   0.00  0.00  0.00  1.00  0.00  0.00  0.00  0.02  0.00
  YS02001765YS02001762    1.00   0.00  0.00  0.00  1.00  0.00  0.00  0.00  0.13  0.00
  YS02001770YS02001767    1.00   0.00  0.00  0.00  1.00  0.00  0.00  0.00  0.00  0.00
  YS02001774YS02001770    1.00   0.00  0.03  0.00  0.97  0.00  0.00  0.00  0.02  0.00
  YS02001779YS02001774    1.00   0.00  0.00  0.00  1.00  0.00  0.00  0.00  0.16  0.00
  YS02001649YS02001757    1.00   0.00  0.00  0.00  1.00  0.00  0.00  0.00  0.15  0.00
  YS02001767YS02001765    1.00   0.00  0.00  0.00  1.00  0.00  0.00  0.00  0.00  0.00
  YS02006561YS02001783    1.00   0.04  0.00  0.00  0.50  0.46  0.00  0.00  0.35  0.00
  YS02001783YS02001784    1.00   0.00  0.04  0.00  0.96  0.00  0.00  0.00  0.00  0.00
  YS02001784YS02001785    1.00   0.00  0.00  0.00  1.00  0.00  0.00  0.00  0.16  0.00
  YS02001788YS02001790    1.00   0.00  0.00  0.00  0.53  0.47  0.00  0.00  0.34  0.00
  YS02001790YS02001791    1.00   0.00  0.00  0.00  0.51  0.49  0.00  0.00  0.40  0.00
  YS02001791YS02001793    1.00   0.00  0.00  0.00  0.51  0.49  0.00  0.00  0.01  0.00
  YS02001910YS02001907    1.00   0.00  0.00  0.00  0.98  0.00  0.00  0.02  0.12  0.00
  YS02001786YS02001788    1.00   0.00  0.00  0.00  0.53  0.47  0.00  0.00  0.00  0.00
  YS02001915YS02001910    1.00   0.00  0.00  0.00  0.99  0.01  0.00  0.00  0.13  0.00
  YS02001918YS02001915    1.00   0.00  0.00  0.00  0.98  0.01  0.00  0.00  0.45  0.00
  YS02001923YS02001920    1.00   0.00  0.00  0.00  1.00  0.00  0.00  0.00  0.64  0.00
  YS02001926YS02001923    1.00   0.00  0.03  0.00  0.41  0.00  0.56  0.00  0.00  0.00
  YS02001929YS02001926    1.00   0.00  0.03  0.00  0.97  0.00  0.00  0.00  0.56  0.00
  YS02001920YS02001918    1.00   0.00  0.00  0.00  1.00  0.00  0.00  0.00  0.00  0.00
  YS02001629YS02163301    1.00   0.04  0.00  0.00  0.96  0.00  0.00  0.00  0.00  0.00
  YS02001619YS02001622    1.00   0.03  0.00  0.00  0.97  0.00  0.00  0.00  0.00  0.00
  YS02001622YS02001625    1.00   0.03  0.00  0.00  0.97  0.00  0.00  0.00  0.03  0.00
  YS02001625YS02001629    1.00   0.03  0.01  0.00  0.96  0.00  0.01  0.00  0.00  0.00
  YS02163301YS02001633    1.00   0.00  0.04  0.00  0.96  0.00  0.00  0.00  0.00  0.00
  YS02163601YS02164001    1.00   0.00  0.03  0.00  0.97  0.00  0.00  0.00  0.00  0.00
  YS02164001YS02001641    1.00   0.01  0.02  0.00  0.97  0.00  0.00  0.00  0.06  0.00
  YS02001641YS02001644    1.00   0.00  0.01  0.00  0.99  0.00  0.00  0.00  0.00  0.00
  YS02001647YS02001649    1.00   0.00  0.04  0.00  0.96  0.00  0.00  0.00  0.01  0.00
  YS02006553YS02006556    1.00   0.01  0.00  0.00  0.99  0.00  0.00  0.00  0.03  0.00
  YS02006556YS02006558    1.00   0.00  0.00  0.00  1.00  0.00  0.00  0.00  0.00  0.00
  YSB6556YSB1171          1.00   0.02  0.01  0.00  0.97  0.00  0.00  0.00  0.00  0.00
  YS02001907YS02006553    1.00   0.00  0.02  0.00  0.98  0.00  0.00  0.00  0.00  0.00
  YS02006558YS02006561    1.00   0.04  0.00  0.00  0.44  0.53  0.00  0.00  0.34  0.00
  YS02001633YS02163601    1.00   0.00  0.01  0.00  0.99  0.00  0.00  0.00  0.15  0.00
  YS02001644YS02001647    1.00   0.00  0.04  0.00  0.96  0.00  0.00  0.00  0.00  0.00
  YS02001745YS02001748    1.00   0.00  0.00  0.00  0.95  0.00  0.00  0.05  0.00  0.00
  YS02001748YS02001751    1.00   0.00  0.00  0.00  0.99  0.01  0.00  0.00  0.13  0.00
  YS02001751YS02001754    1.00   0.00  0.00  0.00  0.96  0.00  0.00  0.04  0.01  0.00
  YS02001754YS02001757    1.00   0.00  0.00  0.00  0.99  0.01  0.00  0.00  0.16  0.00
  YS02001882YS02001884    1.00   0.04  0.00  0.00  0.96  0.00  0.00  0.00  0.00  0.00
  YS02001884YS02001887    1.00   0.02  0.01  0.00  0.97  0.00  0.00  0.00  0.00  0.00
  YS02001890YS02001895    1.00   0.00  0.03  0.00  0.96  0.00  0.00  0.00  0.00  0.00
  YS02001895YS02001898    1.00   0.04  0.00  0.00  0.96  0.00  0.00  0.00  0.00  0.00
  YS02001898YS02001901    1.00   0.04  0.00  0.00  0.96  0.00  0.00  0.00  0.00  0.00
  YS02001901YS02001904    1.00   0.04  0.00  0.00  0.96  0.00  0.00  0.00  0.00  0.00
  YS02001904YS02001907    1.00   0.00  0.04  0.00  0.96  0.00  0.00  0.00  0.00  0.00
  YS02001887YS02001890    1.00   0.00  0.00  0.00  0.98  0.00  0.02  0.00  0.00  0.00
  YS02001652YS02001649    1.00   0.00  0.00  0.00  1.00  0.00  0.00  0.00  0.15  0.00
  YS02001655YS02001652    1.00   0.00  0.00  0.00  0.96  0.00  0.00  0.04  0.01  0.00
  YS02001658YS02001655    1.00   0.00  0.04  0.00  0.95  0.01  0.00  0.00  0.01  0.00
  YS02001661YS02001658    1.00   0.04  0.00  0.00  0.95  0.02  0.00  0.00  0.00  0.00
  YS02001664YS02001661    1.00   0.03  0.00  0.00  0.95  0.02  0.00  0.00  0.07  0.00
  YSB1154YSB6556          1.00   0.03  0.00  0.00  0.97  0.00  0.00  0.00  0.01  0.00
  YSB1174YSB1171          1.00   0.02  0.01  0.00  0.97  0.00  0.00  0.00  0.00  0.00
  YSB1171HS02004479       1.00   0.02  0.00  0.00  0.98  0.00  0.00  0.00  0.10  0.00
  HS02004881HS02006253    1.00   0.02  0.00  0.00  0.95  0.00  0.00  0.02  0.82  0.00
  YS02001793JiankangQianchi    1.00   0.00  0.00  0.00  0.60  0.39  0.00  0.00  0.08  0.00
  YS02001757CaochengTiaoxuchi    1.00   0.00  0.04  0.00  0.91  0.05  0.00  0.00  0.00  0.00
  WSF200WS02003060        1.00   0.00  0.05  0.00  0.01  0.94  0.00  0.00  0.00  0.00
  1                       1.00   0.00  0.00  0.00  0.00  1.00  0.00  0.00  0.67  0.00
  2                       1.00   0.69  0.00  0.00  0.00  0.31  0.00  0.00  0.04  0.00
  3                       1.00   0.03  0.00  0.00  0.00  0.97  0.00  0.00  0.16  0.00
  4                       1.00   1.00  0.00  0.00  0.00  0.00  0.00  0.00  0.00  0.00
  
  
  *************************
  Conduit Surcharge Summary
  *************************
  
  ----------------------------------------------------------------------------
                                                           Hours        Hours 
                         --------- Hours Full --------   Above Full   Capacity
  Conduit                Both Ends  Upstream  Dnstream   Normal Flow   Limited
  ----------------------------------------------------------------------------
  WS02006229WS02006228        2.38      2.43      2.38      6.43         2.38
  WS02006256WS02006235        6.52      6.52      7.04      4.67         0.01
  WS02006253WS02006251        0.01      0.01      0.22      0.01         0.01
  WS02006251WS02006249        0.01      0.01      0.01      0.33         0.01
  WS02006249WS02006248        0.01      0.01      0.01      5.43         0.01
  WS02006248WS02006247        0.01      0.01      0.65      0.01         0.01
  WS02006247WS02006245        0.73      0.78      0.73      6.09         0.49
  WS02006245WS02006243        0.86      0.86      1.66      0.01         0.01
  WS02006243WS02006242        1.68      1.68      1.90      0.01         0.01
  WS02006242WS02006240        1.82      1.82      1.98      0.01         0.01
  WS02006240WS02006239        1.85      1.85      1.90      0.01         0.01
  WS02006239WS02006238        2.00      2.00      2.06      0.01         0.01
  WS02006238WS02006235        2.04      2.04      2.12      0.01         0.02
  WS02006235WS02006234        1.91      1.91      2.01      6.15         0.14
  WS02006234WS02006232        1.97      1.97      2.22      0.01         0.01
  WS02006232WS02006231        1.80      1.80      2.22      0.01         0.01
  WS02006231WS02006230        1.75      1.75      1.82      6.26         0.11
  WS02006230WS02006229        3.14      6.40      3.14      6.53         2.98
  WS02006228WS02006109        2.40      2.61      2.40      6.45         2.40
  WS02006116WS02004401        1.33      1.33      1.40      1.02         1.00
  WS02006115WS02006116        0.81      0.81      0.83      0.63         0.62
  WS02006113WS02006111        0.01      0.01      0.01      0.12         0.01
  WS02006112WS02006115        0.75      0.75      2.00      0.01         0.01
  WS02006111WS02006112        0.01      0.01      6.37      0.01         0.01
  WS02006110WS02006113        0.01      0.01      2.49      0.01         0.01
  WS02006109WS02006110        1.90      1.90      2.62      1.91         0.01
  WS02004411WS02004412        0.01      0.01      0.01      1.19         0.01
  WS02004401WS02004402        1.40      1.40      1.66      0.29         0.29
  WS02004410WS02004411        0.01      0.01      0.01      0.96         0.01
  WS02004409WS02004410        0.01      0.01      0.01      0.67         0.01
  WS02004406WS02004407        0.01      0.01      1.73      0.01         0.01
  WS02004405WS02004406        1.73      1.75      1.73      1.95         1.73
  WS02004404WS02004405        1.75      1.77      1.75      6.43         1.74
  WS02004403WS02004404        1.67      1.67      1.77      0.01         0.01
  WS02004402WS02004403        1.66      1.66      1.67      1.25         1.25
  WS02003072WS02003073        0.01      0.01      0.01      4.53         0.01
  HS02004876HS02004881        0.01      0.01      0.01      0.86         0.01
  HS02004817HS02004824        0.01      0.01      0.32      0.01         0.01
  HS02004785HS02004788        0.01      0.01      0.01      0.81         0.01
  HS02004480HS02004478        0.01      0.01      0.01      1.81         0.01
  HS02004817HS02004807        0.01      0.01      0.32      0.01         0.01
  YS02001759YS02001757        6.35      6.35      6.36      0.01         0.01
  YS02001762YS02001759        6.34      6.34      6.35      0.01         0.01
  YS02001765YS02001762        6.34      6.34      6.34      0.01         0.01
  YS02001770YS02001767        6.33      6.33      6.33      1.37         0.54
  YS02001774YS02001770        6.33      6.33      6.34      0.01         0.01
  YS02001779YS02001774        6.31      6.31      6.34      0.01         0.01
  YS02001649YS02001757        6.34      6.34      6.36      0.01         0.01
  YS02001767YS02001765        6.33      6.33      6.34      0.01         0.01
  YS02006561YS02001783        2.42      2.42      2.93      0.01         0.01
  YS02001783YS02001784        2.92      2.93      2.94      2.81         2.75
  YS02001784YS02001785        2.87      2.94      2.87      3.51         2.87
  YS02001788YS02001790        2.82      2.82      3.01      0.01         0.01
  YS02001790YS02001791        3.01      3.01      3.06      2.33         2.25
  YS02001791YS02001793        3.06      3.06      3.21      0.01         0.01
  YS02001910YS02001907        2.74      2.74      3.04      0.01         0.01
  YS02001786YS02001788        2.82      2.87      2.82      3.22         2.82
  YS02001915YS02001910        2.56      2.56      2.74      0.01         0.01
  YS02001918YS02001915        2.33      2.33      2.56      0.01         0.01
  YS02001923YS02001920        2.16      2.16      2.37      0.01         0.01
  YS02001926YS02001923        0.01      0.01      0.01      0.01         0.01
  YS02001929YS02001926        0.01      0.01      0.01      0.01         0.01
  YS02001920YS02001918        2.33      2.33      2.37      0.01         0.01
  YS02001629YS02163301        6.33      6.33      6.33      0.01         0.01
  YS02001619YS02001622        6.31      6.31      6.31      0.01         0.01
  YS02001622YS02001625        6.31      6.31      6.32      0.01         0.01
  YS02001625YS02001629        6.31      6.31      6.32      0.01         0.01
  YS02163301YS02001633        6.33      6.33      6.33      0.01         0.01
  YS02163601YS02164001        6.33      6.33      6.34      0.01         0.01
  YS02164001YS02001641        6.33      6.33      6.34      0.01         0.02
  YS02001641YS02001644        6.34      6.34      6.34      3.05         3.01
  YS02001647YS02001649        6.31      6.31      6.34      0.01         0.01
  YS02006553YS02006556        2.90      2.90      3.08      0.01         0.01
  YS02006556YS02006558        2.96      2.96      3.14      0.01         0.01
  YSB6556YSB1171              0.01      0.01      0.43      0.01         0.01
  YS02001907YS02006553        3.54      3.54      3.72      0.01         0.01
  YS02006558YS02006561        2.60      2.87      2.60      3.40         2.60
  YS02001633YS02163601        6.33      6.33      6.34      0.01         0.01
  YS02001644YS02001647        6.31      6.31      6.34      0.01         0.01
  YS02001745YS02001748        0.54      0.54      6.28      0.01         0.01
  YS02001748YS02001751        6.29      6.29      6.30      0.01         0.01
  YS02001751YS02001754        6.30      6.30      6.31      0.01         0.01
  YS02001754YS02001757        6.31      6.31      6.36      0.01         0.01
  YS02001882YS02001884        2.57      2.57      2.60      0.01         0.01
  YS02001884YS02001887        2.65      2.65      2.68      0.01         0.01
  YS02001890YS02001895        2.54      2.54      2.76      0.01         0.01
  YS02001895YS02001898        2.53      2.53      2.54      0.01         0.01
  YS02001898YS02001901        2.55      2.55      2.64      0.01         0.01
  YS02001901YS02001904        2.62      2.62      2.64      0.01         0.01
  YS02001904YS02001907        2.62      2.62      3.11      0.01         0.01
  YS02001887YS02001890        2.70      2.70      2.72      1.55         0.01
  YS02001652YS02001649        6.32      6.32      6.34      0.01         0.01
  YS02001655YS02001652        6.30      6.30      6.31      0.01         0.01
  YS02001658YS02001655        6.29      6.29      6.30      0.01         0.01
  YS02001661YS02001658        1.15      1.15      6.29      0.01         0.01
  YS02001664YS02001661        0.01      0.01      2.72      0.01         0.01
  YSB1174YSB1171              0.01      0.01      0.16      0.01         0.01
  YS02001793JiankangQianchi        3.17      3.17      3.78      0.01         0.01
  YS02001757CaochengTiaoxuchi        5.86      5.86      6.36      0.01         0.01
  
  
  ***************
  Pumping Summary
  ***************
  
  ---------------------------------------------------------------------------------------------------------
                                                  Min       Avg       Max     Total     Power    % Time Off
                        Percent   Number of      Flow      Flow      Flow    Volume     Usage    Pump Curve
  Pump                 Utilized   Start-Ups       LPS       LPS       LPS  10^6 ltr     Kw-hr    Low   High
  ---------------------------------------------------------------------------------------------------------
  CC-Pump-1                5.25           1      0.00    148.85    200.00     0.221      0.85    0.0   60.8
  CC-Pump-2               78.72           1      0.00    197.23    200.00     4.380      2.96    0.0    0.1
  JK-Pump-1               82.98           2      0.00    263.09    300.00     5.918     61.25    0.0    0.0
  JK-Pump-2               97.86           1      0.00    261.64    300.00     6.099     62.83    0.0    0.0
  XR-Pump-1               97.86           1      0.00     94.82     95.00     2.593     17.13    0.0    0.0
  XR-Pump-2                4.26           1      0.00     88.26     95.00     0.086      1.02    0.0    0.0
  XR-Pump-3               21.27           1      0.00     77.96     95.00     0.513      7.86    0.0    0.0
  XR-Pump-4               23.40           1      0.00     82.73     95.00     0.599      8.88    0.0    0.0
  

  Analysis begun on:  Sun Jan  2 14:50:24 2022
  Analysis ended on:  Sun Jan  2 14:50:28 2022
  Total elapsed time: 00:00:04