
  EPA STORM WATER MANAGEMENT MODEL - VERSION 5.1 (Build 5.3.0.dev0)
  --------------------------------------------------------------

  WARNING 04: minimum elevation drop used for Conduit WS02004404WS02004405
  WARNING 03: negative offset ignored for Link YS02001904YS02001907
  
  *********************************************************
  NOTE: The summary statistics displayed in this report are
  based on results found at every computational time step,  
  not just on results from each reporting time step.
  *********************************************************
  
  ****************
  Analysis Options
  ****************
  Flow Units ............... LPS
  Process Models:
    Rainfall/Runoff ........ YES
    RDII ................... NO
    Snowmelt ............... NO
    Groundwater ............ NO
    Flow Routing ........... YES
    Ponding Allowed ........ NO
    Water Quality .......... NO
  Infiltration Method ...... HORTON
  Flow Routing Method ...... DYNWAVE
  Surcharge Method ......... EXTRAN
  Starting Date ............ 08/28/2015 08:00:00
  Ending Date .............. 08/28/2015 15:50:00
  Antecedent Dry Days ...... 8.0
  Report Time Step ......... 00:01:00
  Wet Time Step ............ 00:01:00
  Dry Time Step ............ 00:01:00
  Routing Time Step ........ 5.00 sec
  Variable Time Step ....... YES
  Maximum Trials ........... 8
  Number of Threads ........ 4
  Head Tolerance ........... 0.001500 m
  
  
  **************************        Volume         Depth
  Runoff Quantity Continuity     hectare-m            mm
  **************************     ---------       -------
  Total Precipitation ......         5.493        12.027
  Evaporation Loss .........         0.000         0.000
  Infiltration Loss ........         1.412         3.091
  Surface Runoff ...........         3.074         6.729
  Final Storage ............         1.009         2.209
  Continuity Error (%) .....        -0.014
  
  
  **************************        Volume        Volume
  Flow Routing Continuity        hectare-m      10^6 ltr
  **************************     ---------     ---------
  Dry Weather Inflow .......         0.616         6.165
  Wet Weather Inflow .......         3.072        30.724
  Groundwater Inflow .......         0.000         0.000
  RDII Inflow ..............         0.000         0.000
  External Inflow ..........         0.102         1.024
  External Outflow .........         2.091        20.905
  Flooding Loss ............         1.357        13.570
  Evaporation Loss .........         0.000         0.000
  Exfiltration Loss ........         0.000         0.000
  Initial Stored Volume ....         0.076         0.761
  Final Stored Volume ......         0.643         6.429
  Continuity Error (%) .....        -5.771
  
  
  *************************
  Highest Continuity Errors
  *************************
  Node JK-storage (-25.17%)
  Node HS02004842 (16.38%)
  Node YS02001884 (11.15%)
  Node YSB1171 (3.16%)
  Node HS02004817 (3.01%)
  
  
  ***************************
  Time-Step Critical Elements
  ***************************
  Link 3 (69.22%)
  Link WS02006252WS02006251 (25.84%)
  Link WS02006238WS02006235 (1.06%)
  
  
  ********************************
  Highest Flow Instability Indexes
  ********************************
  Link YS02163301YS02001633 (35)
  Link YS02163601YS02164001 (34)
  Link YS02001629YS02163301 (34)
  Link YS02001619YS02001622 (32)
  Link WS02006113WS02006111 (32)
  
  
  *************************
  Routing Time Step Summary
  *************************
  Minimum Time Step           :     0.09 sec
  Average Time Step           :     0.71 sec
  Maximum Time Step           :     5.00 sec
  Percent in Steady State     :    -0.00
  Average Iterations per Step :     4.35
  Percent Not Converging      :    18.81
  
  
  ***************************
  Subcatchment Runoff Summary
  ***************************
  
  ------------------------------------------------------------------------------------------------------------------------------
                            Total      Total      Total      Total     Imperv       Perv      Total       Total     Peak  Runoff
                           Precip      Runon       Evap      Infil     Runoff     Runoff     Runoff      Runoff   Runoff   Coeff
  Subcatchment                 mm         mm         mm         mm         mm         mm         mm    10^6 ltr      LPS
  ------------------------------------------------------------------------------------------------------------------------------
  sub0                      12.03       0.00       0.00       0.84       9.92       0.00       9.92        0.01     2.03   0.825
  sub1                      12.03       0.00       0.00       1.32       9.45       0.00       9.45        0.06    13.40   0.786
  sub2                      12.03       0.00       0.00       4.45       6.67       0.00       6.67        0.06    12.40   0.555
  sub3                      12.03       0.00       0.00       4.45       6.63       0.00       6.63        0.15    27.80   0.552
  sub4                      12.03       0.00       0.00       1.32       9.30       0.00       9.30        0.19    33.44   0.773
  sub5                      12.03       0.00       0.00       0.84       9.87       0.00       9.87        0.11    23.84   0.821
  sub7                      12.03       0.00       0.00       1.08       9.69       0.00       9.69        0.03     7.67   0.806
  sub8                      12.03       0.00       0.00       1.08       9.68       0.00       9.68        0.06    14.05   0.805
  sub9                      12.03       0.00       0.00       1.08       9.68       0.00       9.68        0.05    10.50   0.805
  sub10                     12.03       0.00       0.00       0.96       9.77       0.00       9.77        0.11    23.44   0.813
  sub11                     12.03       0.00       0.00       0.96       9.79       0.00       9.79        0.11    26.14   0.814
  sub12                     12.03       0.00       0.00       1.56       9.28       0.00       9.28        0.08    19.99   0.771
  sub14                     12.03       0.00       0.00       1.08       9.68       0.00       9.68        0.09    20.64   0.805
  sub15                     12.03       0.00       0.00       3.61       7.44       0.00       7.44        0.13    28.31   0.619
  sub16                     12.03       0.00       0.00       3.97       7.14       0.00       7.14        0.07    18.12   0.594
  sub17                     12.03       0.00       0.00       3.85       7.24       0.00       7.24        0.06    14.90   0.602
  sub22                     12.03       0.00       0.00       5.17       6.07       0.00       6.07        0.38    88.71   0.504
  sub23                     12.03       0.00       0.00       4.45       6.71       0.00       6.71        0.32    74.74   0.558
  sub60                     12.03       0.00       0.00       1.44       7.74       0.00       7.74        2.35   221.95   0.644
  sub61                     12.03       0.00       0.00       2.04       7.85       0.00       7.85        2.42   262.11   0.653
  sub62                     12.03       0.00       0.00       0.96       8.54       0.00       8.54        2.63   273.68   0.710
  sub63                     12.03       0.00       0.00       3.49       6.87       0.00       6.87        2.08   239.63   0.571
  sub64                     12.03       0.00       0.00       1.80       7.43       0.00       7.43        2.26   211.47   0.618
  sub65                     12.03       0.00       0.00       1.56       7.55       0.00       7.55        2.32   215.23   0.628
  sub66                     12.03       0.00       0.00       3.49       6.37       0.00       6.37        1.95   191.04   0.530
  sub67                     12.03       0.00       0.00       0.96       9.00       0.00       9.00        2.78   332.67   0.749
  sub68                     12.03       0.00       0.00       1.68       8.26       0.00       8.26        2.54   285.76   0.687
  sub69                     12.03       0.00       0.00       1.80       8.55       0.00       8.55        2.00   265.64   0.711
  sub70                     12.03       8.73       0.00       6.95      11.44       0.11      11.55        2.64   261.84   0.556
  sub71                     12.03       0.00       0.00       0.96       8.33       0.00       8.33        1.97   195.24   0.692
  sub72                     12.03       0.00       0.00       0.84       6.67       0.00       6.67        1.36   105.11   0.555
  sub73                     12.03      11.24       0.00       7.83      12.57       0.08      12.65        2.97   255.46   0.544
  sub74                     12.03       0.00       0.00       9.02       2.55       0.00       2.55        1.02   143.98   0.212
  
  
  ******************
  Node Depth Summary
  ******************
  
  ---------------------------------------------------------------------------------
                                 Average  Maximum  Maximum  Time of Max    Reported
                                   Depth    Depth      HGL   Occurrence   Max Depth
  Node                 Type       Meters   Meters   Meters  days hr:min      Meters
  ---------------------------------------------------------------------------------
  WS02001211           JUNCTION     0.55     0.74     5.57     0  01:59        0.74
  WS02001212           JUNCTION     0.30     0.47     5.53     0  01:58        0.47
  WS02001213           JUNCTION     0.55     0.73     5.49     0  01:57        0.73
  WS02003069           JUNCTION     0.41     0.59     5.17     0  01:57        0.59
  WS02003072           JUNCTION     0.48     0.65     5.02     0  01:57        0.65
  WS02003073           JUNCTION     0.28     0.40     4.46     0  01:58        0.40
  WS02003060           JUNCTION     0.37     0.52     5.45     0  01:56        0.52
  WS02003066           JUNCTION     0.25     0.32     5.88     0  01:53        0.32
  WS02003059           JUNCTION     0.62     0.79     5.48     0  01:57        0.79
  WS02003067           JUNCTION     0.61     0.74     6.06     0  01:52        0.74
  WS02004401           JUNCTION     0.72     0.96     6.96     0  01:47        0.96
  WS02004402           JUNCTION     0.75     0.98     6.94     0  01:48        0.98
  WS02004403           JUNCTION     0.77     0.98     6.91     0  01:48        0.98
  WS02004404           JUNCTION     0.84     1.05     6.90     0  01:49        1.05
  WS02004406           JUNCTION     0.84     1.02     6.85     0  01:48        1.02
  WS02004409           JUNCTION     0.54     0.74     6.51     0  01:51        0.74
  WS02004410           JUNCTION     0.55     0.75     6.47     0  01:52        0.75
  WS02004411           JUNCTION     0.57     0.76     6.44     0  01:52        0.76
  WS02004412           JUNCTION     0.58     0.76     6.40     0  01:52        0.76
  WS02004413           JUNCTION     0.74     0.91     6.38     0  01:52        0.91
  WS02004405           JUNCTION     0.84     1.03     6.88     0  01:48        1.03
  WS02006109           JUNCTION     0.80     1.09     7.71     0  01:46        1.08
  WS02006110           JUNCTION     0.79     1.00     7.59     0  01:50        1.00
  WS02006111           JUNCTION     0.24     0.34     7.05     0  01:46        0.34
  WS02006112           JUNCTION     0.89     1.19     7.08     0  02:11        1.18
  WS02006113           JUNCTION     0.37     0.50     7.40     0  01:47        0.50
  WS02006115           JUNCTION     0.61     0.87     7.01     0  01:48        0.87
  WS02006116           JUNCTION     0.69     0.94     6.98     0  01:47        0.94
  WS02006230           JUNCTION     0.79     1.15     7.89     0  01:45        1.14
  WS02006231           JUNCTION     0.53     0.80     7.93     0  01:45        0.80
  WS02006232           JUNCTION     0.67     0.92     7.96     0  01:46        0.91
  WS02006234           JUNCTION     0.59     0.83     7.99     0  01:45        0.83
  WS02006235           JUNCTION     0.62     0.85     8.02     0  01:47        0.85
  WS02006238           JUNCTION     0.64     0.88     8.02     0  01:46        0.87
  WS02006240           JUNCTION     0.53     0.77     8.06     0  01:45        0.77
  WS02006242           JUNCTION     0.59     0.83     8.10     0  01:45        0.82
  WS02006243           JUNCTION     0.46     0.69     8.11     0  01:46        0.69
  WS02006245           JUNCTION     0.43     0.65     8.13     0  01:46        0.65
  WS02006247           JUNCTION     0.45     0.65     8.15     0  01:46        0.65
  WS02006248           JUNCTION     0.39     0.57     8.16     0  01:46        0.57
  WS02006249           JUNCTION     0.42     0.57     8.17     0  01:46        0.57
  WS02006239           JUNCTION     0.60     0.83     8.04     0  01:45        0.83
  WS02006251           JUNCTION     0.40     0.55     8.22     0  01:47        0.55
  WS02006252           JUNCTION     0.33     0.35     8.59     0  01:35        0.35
  WS02006253           JUNCTION     0.43     0.58     8.22     0  01:47        0.57
  WS02006256           JUNCTION     1.13     1.21     8.15     0  02:10        1.21
  WS02004138           JUNCTION     0.11     0.17     7.42     0  00:20        0.17
  WS02004407           JUNCTION     0.24     0.33     6.64     0  01:50        0.33
  WS02006228           JUNCTION     0.81     1.15     7.80     0  01:44        1.14
  WS02006229           JUNCTION     0.79     1.16     7.85     0  01:46        1.16
  WS02006280           JUNCTION     0.07     0.19     8.46     0  01:42        0.19
  WS02006284           JUNCTION     0.37     0.54     8.94     0  01:42        0.54
  WS02006287           JUNCTION     0.10     0.28     9.23     0  01:42        0.28
  WSF200               JUNCTION     0.24     0.35     5.58     0  01:51        0.35
  HS02004901           JUNCTION     0.13     0.28    10.10     0  01:39        0.28
  HS02004881           JUNCTION     0.01     0.03     9.06     0  01:43        0.03
  HS02004876           JUNCTION     0.05     0.12     9.15     0  01:43        0.12
  HS02004870           JUNCTION     0.02     0.06     9.35     0  01:43        0.06
  HS02004862           JUNCTION     0.02     0.07     9.45     0  01:44        0.07
  HS02004856           JUNCTION     0.08     0.12     9.55     0  01:44        0.12
  HS02004852           JUNCTION     0.01     0.04     9.56     0  01:52        0.04
  HS02004848           JUNCTION     0.01     0.04     9.64     0  01:51        0.04
  HS02004842           JUNCTION     0.33     0.37     9.64     0  01:51        0.37
  HS02004837           JUNCTION     0.03     0.06     9.64     0  01:51        0.06
  HS02004830           JUNCTION     0.04     0.08     9.55     0  01:45        0.08
  HS02004824           JUNCTION     0.02     0.06     9.46     0  01:54        0.06
  HS02004817           JUNCTION     0.44     0.59     9.43     0  01:43        0.59
  HS02004807           JUNCTION     0.13     0.26     9.43     0  01:43        0.26
  HS02004802           JUNCTION     0.17     0.30     9.42     0  01:43        0.29
  HS02004799           JUNCTION     0.13     0.33     9.54     0  01:40        0.33
  HS02004792           JUNCTION     0.04     0.14     9.66     0  01:40        0.14
  HS02004788           JUNCTION     0.03     0.10    10.00     0  01:40        0.10
  HS02004785           JUNCTION     0.05     0.17    10.07     0  01:40        0.17
  HS02004777           JUNCTION     0.15     0.30    10.10     0  01:39        0.30
  HS02004770           JUNCTION     0.12     0.27    10.10     0  01:39        0.27
  HS02004480           JUNCTION     0.09     0.27     9.51     0  01:41        0.27
  HS02004479           JUNCTION     0.12     0.30     9.51     0  01:40        0.30
  HS02004478           JUNCTION     0.07     0.18     9.41     0  01:42        0.18
  YS02001745           JUNCTION     0.74     0.88     8.39     0  02:56        0.88
  YS02001748           JUNCTION     1.15     2.27     9.35     0  02:07        1.32
  YS02001751           JUNCTION     1.33     2.15     9.03     0  02:08        1.53
  YS02001754           JUNCTION     1.59     2.19     8.79     0  02:08        1.81
  YS02001762           JUNCTION     1.79     2.08     8.48     0  02:08        2.02
  YS02001765           JUNCTION     1.74     2.01     8.46     0  02:08        1.97
  YS02001767           JUNCTION     1.71     1.97     8.45     0  02:08        1.92
  YS02001770           JUNCTION     1.70     1.95     8.44     0  02:08        1.90
  YS02001774           JUNCTION     1.77     2.00     8.43     0  02:08        1.96
  YS02001779           JUNCTION     1.52     1.68     8.37     0  02:04        1.68
  YS02001882           JUNCTION     0.53     1.37     8.09     0  02:29        1.36
  YS02001884           JUNCTION     0.63     1.48     8.10     0  02:30        1.46
  YS02001759           JUNCTION     1.83     2.11     8.47     0  02:08        2.06
  YS02001887           JUNCTION     0.70     1.55     8.09     0  02:29        1.54
  YS02001890           JUNCTION     0.73     1.58     8.09     0  02:29        1.56
  YS02001898           JUNCTION     0.50     1.34     8.07     0  02:29        1.32
  YS02001901           JUNCTION     0.62     1.46     8.07     0  02:29        1.45
  YS02001904           JUNCTION     0.60     1.43     8.06     0  02:29        1.42
  YS02001907           JUNCTION     0.93     1.77     8.06     0  02:29        1.76
  YS02001910           JUNCTION     0.72     1.56     8.07     0  02:29        1.54
  YS02001915           JUNCTION     0.52     1.35     8.07     0  02:32        1.34
  YS02001918           JUNCTION     0.26     1.00     8.06     0  02:30        0.99
  YS02001619           JUNCTION     1.30     1.61     8.54     0  02:02        1.46
  YS02001629           JUNCTION     1.66     1.85     8.40     0  02:03        1.85
  YS02001641           JUNCTION     1.76     1.96     8.40     0  02:10        1.93
  YS02001644           JUNCTION     1.76     1.92     8.35     0  02:08        1.92
  YS02001652           JUNCTION     1.60     2.16     8.76     0  02:24        2.12
  YS02001655           JUNCTION     1.36     2.20     9.05     0  02:01        2.12
  YS02001920           JUNCTION     0.36     1.05     8.06     0  02:30        1.05
  YS02001923           JUNCTION     0.20     0.80     8.06     0  02:29        0.80
  YS02001926           JUNCTION     0.24     0.62     8.07     0  02:30        0.62
  YS02001929           JUNCTION     0.12     0.37     8.07     0  02:31        0.36
  YS02001658           JUNCTION     1.09     2.30     9.44     0  02:03        1.96
  YS02001661           JUNCTION     0.85     2.46     9.86     0  02:27        1.64
  YS02001664           JUNCTION     0.37     0.57     8.49     0  02:24        0.56
  YS02001622           JUNCTION     1.32     1.62     8.52     0  02:03        1.49
  YS02001633           JUNCTION     1.75     2.01     8.46     0  02:08        1.94
  YS02001649           JUNCTION     1.80     2.05     8.44     0  02:22        2.05
  YS02001757           JUNCTION     1.92     2.21     8.47     0  02:08        2.17
  YS02001895           JUNCTION     0.50     1.33     8.08     0  02:32        1.32
  YS02001625           JUNCTION     1.61     1.78     8.38     0  02:03        1.78
  YS02163301           JUNCTION     1.69     1.95     8.47     0  02:08        1.87
  YS02163601           JUNCTION     1.80     2.03     8.43     0  02:10        1.98
  YS02164001           JUNCTION     1.74     1.96     8.42     0  02:10        1.91
  YS02001647           JUNCTION     1.59     1.80     8.41     0  02:22        1.79
  YSB1154              JUNCTION     0.26     0.45     9.51     0  01:40        0.45
  YSB6556              JUNCTION     0.16     0.34     9.51     0  01:40        0.34
  YSB1174              JUNCTION     0.21     0.40     9.51     0  01:41        0.40
  YSB1171              JUNCTION     0.41     0.61     9.51     0  01:40        0.61
  YS02006553           JUNCTION     0.93     1.77     8.05     0  02:29        1.75
  YS02006561           JUNCTION     0.31     0.93     7.59     0  02:29        0.92
  YS02006556           JUNCTION     0.90     1.71     8.02     0  02:29        1.70
  YS02006558           JUNCTION     0.94     1.75     8.02     0  02:29        1.74
  YS02001783           JUNCTION     0.53     1.48     7.62     0  01:59        1.33
  YS02001784           JUNCTION     0.55     1.94     8.00     0  01:59        1.29
  YS02001786           JUNCTION     0.49     2.16     8.19     0  01:59        1.19
  YS02001788           JUNCTION     0.41     2.02     8.00     0  01:59        1.18
  YS02001790           JUNCTION     0.51     1.96     7.60     0  01:58        1.37
  YS02001791           JUNCTION     0.46     1.76     7.23     0  01:59        1.34
  YS02001793           JUNCTION     0.60     2.05     6.88     0  01:59        1.85
  WS02004139           JUNCTION     0.48     0.68     5.59     0  01:59        0.68
  WSC                  OUTFALL      0.28     0.40     1.07     0  01:58        0.40
  3                    OUTFALL      0.15     0.21     6.21     0  02:10        0.21
  4                    OUTFALL      0.01     0.07     7.07     0  01:46        0.07
  5                    OUTFALL      0.00     0.00     5.00     0  00:00        0.00
  JK-storage           STORAGE      2.07     5.80     6.60     0  01:59        5.80
  CC-storage           STORAGE      1.15     1.37     8.37     0  02:55        1.37
  XR-storage           STORAGE      7.18     7.72     5.72     0  02:16        7.72
  
  
  *******************
  Node Inflow Summary
  *******************
  
  -------------------------------------------------------------------------------------------------
                                  Maximum  Maximum                  Lateral       Total        Flow
                                  Lateral    Total  Time of Max      Inflow      Inflow     Balance
                                   Inflow   Inflow   Occurrence      Volume      Volume       Error
  Node                 Type           LPS      LPS  days hr:min    10^6 ltr    10^6 ltr     Percent
  -------------------------------------------------------------------------------------------------
  WS02001211           JUNCTION      7.35   292.75     0  02:00       0.207        4.21       0.555
  WS02001212           JUNCTION      0.00   292.84     0  02:00           0        4.18       0.317
  WS02001213           JUNCTION      0.00   292.86     0  02:00           0        4.17       0.405
  WS02003069           JUNCTION      0.32   954.52     0  01:57     0.00902        13.5       0.177
  WS02003072           JUNCTION      0.00   954.49     0  01:57           0        13.5       0.227
  WS02003073           JUNCTION      1.82   956.31     0  01:58      0.0514        13.5       0.247
  WS02003060           JUNCTION     16.53   954.18     0  01:56       0.466        13.5       0.169
  WS02003066           JUNCTION      0.00   649.50     0  01:53           0        8.93       0.051
  WS02003059           JUNCTION      0.00   293.22     0  02:01           0        4.16       0.759
  WS02003067           JUNCTION      0.00   649.40     0  01:52           0        8.94       0.107
  WS02004401           JUNCTION      0.00   654.92     0  01:47           0        9.18       0.240
  WS02004402           JUNCTION      0.00   652.66     0  01:49           0        9.16       0.226
  WS02004403           JUNCTION      0.00   651.49     0  01:48           0        9.14       0.205
  WS02004404           JUNCTION      0.16   651.63     0  01:48     0.00457        9.13       0.154
  WS02004406           JUNCTION      0.00   651.65     0  01:48           0        9.09       0.375
  WS02004409           JUNCTION      0.00   651.42     0  01:50           0        9.05       0.188
  WS02004410           JUNCTION      0.00   650.07     0  01:51           0        9.03       0.212
  WS02004411           JUNCTION      0.00   649.80     0  01:51           0        9.01       0.216
  WS02004412           JUNCTION      0.00   649.52     0  01:52           0        8.99       0.233
  WS02004413           JUNCTION      0.00   649.57     0  01:52           0        8.97       0.342
  WS02004405           JUNCTION      0.04   651.67     0  01:48     0.00107        9.11       0.230
  WS02006109           JUNCTION      1.23   641.97     0  01:46      0.0347        9.25       0.242
  WS02006110           JUNCTION      0.00   641.97     0  01:46           0        9.23       0.222
  WS02006111           JUNCTION      0.00   673.13     0  01:47           0         9.2       0.051
  WS02006112           JUNCTION     14.90   661.07     0  01:47      0.0621        9.25       0.325
  WS02006113           JUNCTION      0.00   643.95     0  01:47           0        9.21       0.110
  WS02006115           JUNCTION      0.00   661.70     0  01:47           0        9.22       0.227
  WS02006116           JUNCTION      0.00   658.64     0  01:47           0         9.2       0.214
  WS02006230           JUNCTION     10.28   348.59     0  03:09        0.29         7.4       0.205
  WS02006231           JUNCTION      0.00   337.19     0  03:10           0        7.11       0.134
  WS02006232           JUNCTION      0.00   337.12     0  03:10           0        7.13       0.233
  WS02006234           JUNCTION      0.00   336.38     0  03:09           0        7.14       0.124
  WS02006235           JUNCTION      0.00   336.05     0  02:51           0        7.17       0.150
  WS02006238           JUNCTION      0.00   239.75     0  02:40           0        4.73       0.172
  WS02006240           JUNCTION      0.00   238.77     0  02:40           0        4.72       0.259
  WS02006242           JUNCTION      0.00   238.50     0  02:39           0        4.73       0.321
  WS02006243           JUNCTION      0.00   253.03     0  01:39           0        4.73       0.181
  WS02006245           JUNCTION      0.00   260.43     0  01:40           0        4.74       0.173
  WS02006247           JUNCTION      0.00   266.10     0  01:40           0        4.74       0.147
  WS02006248           JUNCTION      0.00   269.53     0  01:40           0        4.75       0.101
  WS02006249           JUNCTION      0.00   276.19     0  01:48           0        4.86       0.196
  WS02006239           JUNCTION      0.00   239.30     0  02:38           0        4.72       0.250
  WS02006251           JUNCTION      0.08   276.82     0  01:45     0.00217        4.87       0.180
  WS02006252           JUNCTION      0.00   200.00     0  02:00           0        4.51       0.009
  WS02006253           JUNCTION      2.03    76.41     0  01:43     0.00803        0.36       1.020
  WS02006256           JUNCTION      0.00   600.00     0  02:10           0        9.82       0.032
  WS02004138           JUNCTION      0.00   285.00     0  00:20           0        4.02       0.075
  WS02004407           JUNCTION      0.00   651.69     0  01:49           0        9.06       0.085
  WS02006228           JUNCTION      0.00   640.80     0  01:46           0        9.23       0.170
  WS02006229           JUNCTION      0.00   639.23     0  01:46           0        9.25       0.150
  WS02006280           JUNCTION      0.00   366.28     0  01:42           0        1.87       0.003
  WS02006284           JUNCTION      0.10   366.31     0  01:42      0.0027        1.87       0.029
  WS02006287           JUNCTION      0.00   366.22     0  01:42           0        1.87       0.038
  WSF200               JUNCTION      0.00   649.56     0  01:53           0        8.93       0.051
  HS02004901           JUNCTION     18.12    18.12     0  01:36      0.0747      0.0749       2.401
  HS02004881           JUNCTION      7.67    74.61     0  01:43      0.0326       0.352       0.122
  HS02004876           JUNCTION     13.40    67.33     0  01:43      0.0628        0.32       0.168
  HS02004870           JUNCTION     14.05    54.07     0  01:43      0.0618       0.257       0.041
  HS02004862           JUNCTION     12.60    40.55     0  01:44      0.0678       0.196       0.087
  HS02004856           JUNCTION     10.50    27.98     0  01:43      0.0465       0.129       1.121
  HS02004852           JUNCTION      0.00    17.93     0  01:51           0      0.0829       0.064
  HS02004848           JUNCTION     27.80    27.80     0  01:53       0.149       0.149       0.028
  HS02004842           JUNCTION      0.00    10.09     0  01:58           0      0.0794      19.595
  HS02004837           JUNCTION     29.79    38.22     0  01:51       0.287       0.353       0.229
  HS02004830           JUNCTION      0.15    38.36     0  01:51     0.00423       0.344       0.361
  HS02004824           JUNCTION     33.49    71.74     0  01:54       0.195       0.538       0.100
  HS02004817           JUNCTION      0.60    72.33     0  01:54      0.0169       0.554       3.103
  HS02004807           JUNCTION     26.14    95.63     0  01:52       0.114       0.651       0.671
  HS02004802           JUNCTION      0.00    95.92     0  01:53           0       0.649       0.613
  HS02004799           JUNCTION     20.64   230.90     0  01:40      0.0921        1.05       0.259
  HS02004792           JUNCTION     88.99   210.33     0  01:39       0.391       0.955       0.041
  HS02004788           JUNCTION     29.98   122.04     0  01:40       0.175       0.565       0.069
  HS02004785           JUNCTION      0.15    92.14     0  01:39     0.00423       0.391       0.126
  HS02004777           JUNCTION      0.03    92.19     0  01:38    0.000846       0.391       1.344
  HS02004770           JUNCTION     74.74    92.54     0  01:38        0.32       0.393       0.790
  HS02004480           JUNCTION      0.00   273.94     0  01:41           0        1.24       0.088
  HS02004479           JUNCTION      0.00    43.16     0  01:41           0       0.201       0.365
  HS02004478           JUNCTION      0.00   366.17     0  01:42           0        1.87       0.020
  YS02001745           JUNCTION    221.95   394.63     0  02:07        2.35        2.36       0.474
  YS02001748           JUNCTION      0.04   591.98     0  02:08     0.00127        2.35       0.966
  YS02001751           JUNCTION      0.01   402.91     0  02:00     0.00031        2.31       1.028
  YS02001754           JUNCTION      0.26   247.17     0  02:07     0.00733         2.3       1.079
  YS02001762           JUNCTION      0.00   276.96     0  02:12           0        1.84       1.155
  YS02001765           JUNCTION      0.00   276.15     0  02:12           0        1.84       1.328
  YS02001767           JUNCTION      0.54   275.58     0  02:26      0.0151        1.86       1.944
  YS02001770           JUNCTION    273.83   300.75     0  02:59        2.63        2.68       1.185
  YS02001774           JUNCTION      0.00   301.33     0  02:59           0       0.866       2.981
  YS02001779           JUNCTION      0.01   301.35     0  02:59    0.000141       0.835       1.898
  YS02001882           JUNCTION      0.00    21.59     0  02:01           0      0.0158      14.908
  YS02001884           JUNCTION      0.00    45.99     0  02:01           0      0.0511      12.555
  YS02001759           JUNCTION    262.15   538.67     0  02:26        2.42        4.18       0.548
  YS02001887           JUNCTION    333.12   342.17     0  02:11        2.79        2.82       0.285
  YS02001890           JUNCTION      0.00   342.37     0  02:11           0        2.77       0.318
  YS02001898           JUNCTION      0.00   353.07     0  02:11           0        2.76       0.093
  YS02001901           JUNCTION      0.00   344.05     0  02:11           0        2.76       0.238
  YS02001904           JUNCTION      0.00   343.86     0  02:11           0        2.76       0.215
  YS02001907           JUNCTION      0.00   620.11     0  02:33           0        6.14       0.384
  YS02001910           JUNCTION      0.00   319.78     0  03:05           0        3.39       0.332
  YS02001915           JUNCTION    195.26   315.42     0  03:03        1.97         3.4       0.164
  YS02001918           JUNCTION      0.00   137.37     0  02:52           0        1.43       0.124
  YS02001619           JUNCTION    191.04   191.04     0  02:29        1.95        1.95       0.619
  YS02001629           JUNCTION      0.00   203.44     0  02:01           0        1.79       1.594
  YS02001641           JUNCTION      0.00   399.74     0  02:05           0        4.01       0.523
  YS02001644           JUNCTION    211.51   999.62     0  02:57        2.26        8.23       0.316
  YS02001652           JUNCTION      0.00   317.44     0  02:04           0        2.03       1.123
  YS02001655           JUNCTION      0.15   442.67     0  01:59     0.00434        2.05       1.226
  YS02001920           JUNCTION      2.87   132.95     0  02:52      0.0809        1.44       0.198
  YS02001923           JUNCTION      0.04   115.36     0  02:52     0.00106        1.36       0.052
  YS02001926           JUNCTION      0.05   122.70     0  02:52     0.00147        1.36       0.223
  YS02001929           JUNCTION    105.11   105.11     0  02:59        1.36        1.36       0.036
  YS02001658           JUNCTION      0.00   637.36     0  02:04           0        2.08       1.075
  YS02001661           JUNCTION      0.00   633.32     0  02:24           0        2.86      -0.015
  YS02001664           JUNCTION    239.63   367.18     0  02:24        2.08        2.86       0.239
  YS02001622           JUNCTION      0.00   195.20     0  02:01           0        1.94       1.651
  YS02001633           JUNCTION    215.43   399.63     0  02:05        2.33        4.07       0.788
  YS02001649           JUNCTION      0.00   847.13     0  02:20           0        5.01       0.741
  YS02001757           JUNCTION      0.00  1576.08     0  02:21           0        9.32       0.999
  YS02001895           JUNCTION      0.00   343.17     0  02:11           0        2.77       0.179
  YS02001625           JUNCTION      0.00   203.36     0  02:01           0        1.91       2.087
  YS02163301           JUNCTION      0.00   212.86     0  02:02           0        1.78       1.359
  YS02163601           JUNCTION      0.11   399.59     0  02:05      0.0031        4.02       0.749
  YS02164001           JUNCTION      0.00   399.65     0  02:05           0           4       0.495
  YS02001647           JUNCTION      0.00   605.87     0  02:21           0        4.02       0.702
  YSB1154              JUNCTION     23.84    23.84     0  01:41       0.112       0.113       1.298
  YSB6556              JUNCTION      0.00    24.02     0  01:41           0       0.113       1.117
  YSB1174              JUNCTION     19.99    19.99     0  01:36       0.081      0.0815       1.597
  YSB1171              JUNCTION      0.00    43.60     0  01:40           0         0.2       3.266
  YS02006553           JUNCTION      0.00   619.98     0  02:33           0        6.13       0.245
  YS02006561           JUNCTION      0.00   899.35     0  02:30           0        8.64       0.007
  YS02006556           JUNCTION      0.00   619.95     0  02:33           0        6.14       0.180
  YS02006558           JUNCTION    286.64   899.69     0  02:30        2.56        8.67       0.060
  YS02001783           JUNCTION      0.00   899.52     0  02:30           0        8.64       0.024
  YS02001784           JUNCTION      1.06   900.54     0  02:30      0.0299        8.66       0.039
  YS02001786           JUNCTION      0.06   900.57     0  02:29     0.00159        8.66       0.036
  YS02001788           JUNCTION      0.07   900.60     0  02:30       0.002        8.66       0.022
  YS02001790           JUNCTION      0.15   900.83     0  02:30     0.00437        8.66       0.026
  YS02001791           JUNCTION      0.00   900.85     0  02:30           0        8.66       0.013
  YS02001793           JUNCTION      0.00   900.84     0  02:30           0        8.66       0.005
  WS02004139           JUNCTION      0.32   285.35     0  00:20     0.00905        4.02       0.623
  WSC                  OUTFALL       0.00   956.28     0  01:58           0        13.5       0.000
  3                    OUTFALL       0.00   521.46     0  02:10           0        7.34       0.000
  4                    OUTFALL       0.00    55.92     0  01:46           0         0.1       0.000
  5                    OUTFALL       0.00     0.00     0  00:00           0           0       0.000 ltr
  JK-storage           STORAGE       0.00   900.92     0  02:30           0        8.81     -20.112
  CC-storage           STORAGE       0.00  1575.91     0  02:21           0        8.22       0.781
  XR-storage           STORAGE     560.10   560.10     0  02:30        9.63        10.2      -0.001
  
  
  **********************
  Node Surcharge Summary
  **********************
  
  Surcharging occurs when water rises above the top of the highest conduit.
  ---------------------------------------------------------------------
                                               Max. Height   Min. Depth
                                   Hours       Above Crown    Below Rim
  Node                 Type      Surcharged         Meters       Meters
  ---------------------------------------------------------------------
  WS02004404           JUNCTION        0.54          0.047        2.733
  WS02004406           JUNCTION        0.33          0.022        2.428
  WS02004405           JUNCTION        0.44          0.035        2.765
  WS02006109           JUNCTION        1.89          0.268        1.552
  WS02006110           JUNCTION        0.99          0.092        1.758
  WS02006112           JUNCTION        1.31          0.193        1.487
  WS02006230           JUNCTION        0.50          0.067        1.503
  WS02006231           JUNCTION        0.66          0.093        1.437
  WS02006232           JUNCTION        1.65          0.221        1.259
  WS02006234           JUNCTION        1.00          0.114        1.126
  WS02006235           JUNCTION        1.26          0.142        1.148
  WS02006238           JUNCTION        1.40          0.159        1.271
  WS02006240           JUNCTION        0.70          0.059        1.331
  WS02006242           JUNCTION        0.96          0.098        0.722
  WS02006239           JUNCTION        0.97          0.094        1.196
  WS02006228           JUNCTION        1.86          0.320        1.880
  YS02001748           JUNCTION        5.57          1.190        0.000
  YS02001751           JUNCTION        5.78          1.150        0.050
  YS02001754           JUNCTION        5.97          1.136        0.014
  YS02001762           JUNCTION        6.14          1.076        0.074
  YS02001765           JUNCTION        6.13          1.006        0.094
  YS02001767           JUNCTION        6.12          0.965        0.065
  YS02001770           JUNCTION        6.11          0.920        0.000
  YS02001774           JUNCTION        6.14          1.004        0.046
  YS02001779           JUNCTION        5.95          0.680        0.000
  YS02001882           JUNCTION        0.92          0.374        0.456
  YS02001884           JUNCTION        0.97          0.418        0.452
  YS02001759           JUNCTION        6.15          1.107        0.103
  YS02001887           JUNCTION        1.09          0.502        0.448
  YS02001890           JUNCTION        1.13          0.533        0.227
  YS02001898           JUNCTION        0.83          0.306        0.434
  YS02001901           JUNCTION        1.04          0.460        0.410
  YS02001904           JUNCTION        1.01          0.430        0.420
  YS02001907           JUNCTION        1.68          0.760        0.190
  YS02001910           JUNCTION        1.19          0.561        0.539
  YS02001915           JUNCTION        0.89          0.351        0.649
  YS02001619           JUNCTION        5.78          0.610        0.000
  YS02001629           JUNCTION        5.79          0.470        0.000
  YS02001641           JUNCTION        6.13          0.961        0.139
  YS02001644           JUNCTION        6.13          0.920        0.000
  YS02001652           JUNCTION        6.02          1.130        0.000
  YS02001655           JUNCTION        5.80          1.200        0.000
  YS02001920           JUNCTION        0.26          0.052        1.088
  YS02001658           JUNCTION        5.63          1.300        0.000
  YS02001661           JUNCTION        0.23          1.390        0.000
  YS02001622           JUNCTION        5.81          0.620        0.000
  YS02001633           JUNCTION        6.12          0.990        0.070
  YS02001649           JUNCTION        6.14          1.050        0.000
  YS02001757           JUNCTION        6.19          1.210        0.000
  YS02001895           JUNCTION        0.86          0.333        0.417
  YS02001625           JUNCTION        6.09          0.780        0.000
  YS02163301           JUNCTION        6.11          0.951        0.079
  YS02163601           JUNCTION        6.15          1.031        0.049
  YS02164001           JUNCTION        6.12          0.963        0.137
  YS02001647           JUNCTION        6.07          0.804        0.096
  YS02006553           JUNCTION        1.75          0.767        0.423
  YS02006561           JUNCTION        0.59          0.128        1.022
  YS02006556           JUNCTION        1.42          0.674        0.676
  YS02006558           JUNCTION        1.37          0.653        0.747
  YS02001783           JUNCTION        1.46          0.683        0.917
  YS02001784           JUNCTION        1.48          1.135        0.355
  YS02001786           JUNCTION        1.46          1.363        0.067
  YS02001788           JUNCTION        1.44          1.218        0.262
  YS02001790           JUNCTION        1.64          1.157        0.000
  YS02001791           JUNCTION        1.68          0.958        0.962
  YS02001793           JUNCTION        1.80          1.050        1.550
  
  
  *********************
  Node Flooding Summary
  *********************
  
  Flooding refers to all water that overflows a node, whether it ponds or not.
  --------------------------------------------------------------------------
                                                             Total   Maximum
                                 Maximum   Time of Max       Flood    Ponded
                        Hours       Rate    Occurrence      Volume     Depth
  Node                 Flooded       LPS   days hr:min    10^6 ltr    Meters
  --------------------------------------------------------------------------
  YS02001748              0.01    218.92      0  02:08       0.000     0.000
  YS02001770              0.01      5.64      0  02:08       0.000     0.000
  YS02001779              2.47    301.29      0  02:59       0.815     0.000
  YS02001619              0.01     26.96      0  02:06       0.000     0.000
  YS02001629              0.01     39.18      0  02:07       0.001     0.000
  YS02001644              4.80    999.58      0  02:57       6.154     0.000
  YS02001652              0.01     19.21      0  02:30       0.000     0.000
  YS02001655              0.01    140.68      0  02:01       0.000     0.000
  YS02001658              0.01    219.76      0  02:03       0.000     0.000
  YS02001661              0.01    166.41      0  02:33       0.001     0.000
  YS02001622              0.01     41.65      0  02:04       0.000     0.000
  YS02001649              0.11     46.71      0  02:33       0.006     0.000
  YS02001757              0.01     20.14      0  02:08       0.000     0.000
  YS02001625              0.85     48.17      0  02:31       0.097     0.000
  YS02001790              0.01    141.41      0  01:58       0.000     0.000
  JK-storage              1.45    391.31      0  02:00       1.210     0.000
  XR-storage              5.55    465.10      0  02:30       5.285     0.000
  
  
  **********************
  Storage Volume Summary
  **********************
  
  --------------------------------------------------------------------------------------------------
                         Average     Avg  Evap Exfil       Maximum     Max    Time of Max    Maximum
                          Volume    Pcnt  Pcnt  Pcnt        Volume    Pcnt     Occurrence    Outflow
  Storage Unit           1000 m3    Full  Loss  Loss       1000 m3    Full    days hr:min        LPS
  --------------------------------------------------------------------------------------------------
  JK-storage               0.104      36     0     0         0.291     100       0  01:59     600.00
  CC-storage               3.212      20     0     0         3.828      24       0  02:55     200.00
  XR-storage               0.861      93     0     0         0.926     100       0  02:16     285.00
  
  
  ***********************
  Outfall Loading Summary
  ***********************
  
  -----------------------------------------------------------
                         Flow       Avg       Max       Total
                         Freq      Flow      Flow      Volume
  Outfall Node           Pcnt       LPS       LPS    10^6 ltr
  -----------------------------------------------------------
  WSC                   99.99    520.06    956.28      13.462
  3                     96.99    332.96    521.46       7.343
  4                     16.52     25.90     55.92       0.100
  5                      0.00      0.00      0.00       0.000
  -----------------------------------------------------------
  System                53.38    878.92   1414.26      20.905
  
  
  ********************
  Link Flow Summary
  ********************
  
  -----------------------------------------------------------------------------
                                 Maximum  Time of Max   Maximum    Max/    Max/
                                  |Flow|   Occurrence   |Veloc|    Full    Full
  Link                 Type          LPS  days hr:min     m/sec    Flow   Depth
  -----------------------------------------------------------------------------
  WS02003066WSF200     CONDUIT    649.56     0  01:53      2.86    0.11    0.26
  WS02006287WS02006284 CONDUIT    366.21     0  01:42      1.96    0.17    0.29
  WS02006284WS02006280 CONDUIT    366.28     0  01:42      2.20    0.15    0.26
  WS02006280WS02006229 CONDUIT    366.28     0  01:42      3.55    0.08    0.19
  WS02006229WS02006228 CONDUIT    640.80     0  01:46      1.27    2.12    1.00
  WS02006256WS02006235 CONDUIT    166.25     0  00:01      2.58    1.76    1.00
  WS02006253WS02006251 CONDUIT     76.74     0  01:45      0.58    0.23    0.79
  WS02006252WS02006251 CONDUIT    200.94     0  01:35      1.97    0.74    0.76
  WS02006251WS02006249 CONDUIT    276.19     0  01:48      1.03    0.80    0.80
  WS02006249WS02006248 CONDUIT    269.53     0  01:40      1.11    1.48    0.80
  WS02006248WS02006247 CONDUIT    266.10     0  01:40      1.08    0.58    0.86
  WS02006247WS02006245 CONDUIT    260.43     0  01:40      1.04    2.06    0.92
  WS02006245WS02006243 CONDUIT    253.03     0  01:39      1.10    0.75    0.95
  WS02006243WS02006242 CONDUIT    238.50     0  02:39      0.86    0.51    0.99
  WS02006242WS02006240 CONDUIT    238.77     0  02:40      0.68    0.95    1.00
  WS02006240WS02006239 CONDUIT    239.30     0  02:38      0.68    0.75    1.00
  WS02006239WS02006238 CONDUIT    239.75     0  02:40      0.67    0.77    1.00
  WS02006238WS02006235 CONDUIT    239.76     0  02:40      1.25    0.54    1.00
  WS02006235WS02006234 CONDUIT    336.38     0  03:09      0.95    3.55    1.00
  WS02006234WS02006232 CONDUIT    337.12     0  03:10      1.13    0.68    1.00
  WS02006232WS02006231 CONDUIT    337.19     0  03:10      0.95    0.71    1.00
  WS02006231WS02006230 CONDUIT    338.31     0  03:09      1.30    5.13    1.00
  WS02006230WS02006229 CONDUIT    350.21     0  03:09      0.91    7.79    1.00
  WS02006228WS02006109 CONDUIT    640.74     0  01:46      1.27    2.80    1.00
  WS02006116WS02004401 CONDUIT    654.92     0  01:47      0.85    0.90    0.95
  WS02006115WS02006116 CONDUIT    658.64     0  01:47      0.93    0.85    0.88
  WS02006113WS02006111 CONDUIT    673.13     0  01:47      2.60    0.81    0.52
  WS02006112WS02006115 CONDUIT    661.70     0  01:47      0.88    0.39    0.93
  WS02006111WS02006112 CONDUIT    647.84     0  01:47      1.72    0.31    0.71
  WS02006110WS02006113 CONDUIT    643.95     0  01:47      1.47    0.59    0.81
  WS02006109WS02006110 CONDUIT    641.97     0  01:46      1.28    1.23    1.00
  WS02004411WS02004412 CONDUIT    649.52     0  01:52      1.02    0.92    0.76
  WS02004401WS02004402 CONDUIT    652.66     0  01:49      0.84    0.78    0.97
  WS02004413WS02003067 CONDUIT    649.40     0  01:52      1.24    0.28    0.63
  WS02004412WS02004413 CONDUIT    649.57     0  01:52      0.93    0.44    0.83
  WS02004410WS02004411 CONDUIT    649.80     0  01:51      1.02    0.89    0.75
  WS02004409WS02004410 CONDUIT    650.07     0  01:51      1.04    0.84    0.75
  WS02004407WS02004409 CONDUIT    651.42     0  01:50      1.57    0.23    0.54
  WS02004406WS02004407 CONDUIT    651.69     0  01:49      1.18    0.29    0.66
  WS02004405WS02004406 CONDUIT    651.65     0  01:48      0.83    1.29    1.00
  WS02004404WS02004405 CONDUIT    651.63     0  01:48      0.84    6.38    1.00
  WS02004403WS02004404 CONDUIT    651.47     0  01:48      0.83    0.47    0.99
  WS02004402WS02004403 CONDUIT    651.49     0  01:48      0.83    0.94    0.98
  WS02004139WS02001211 CONDUIT    285.41     0  02:00      0.69    0.36    0.55
  WS02004138WS02004139 CONDUIT    285.03     0  00:20      2.94    0.06    0.40
  WS02003067WS02003066 CONDUIT    649.50     0  01:53      1.34    0.21    0.44
  WS02001213WS02003059 CONDUIT    293.22     0  02:01      0.65    0.48    0.75
  WS02001212WS02001213 CONDUIT    292.86     0  02:00      1.19    0.45    0.44
  WS02001211WS02001212 CONDUIT    292.84     0  02:00      0.67    0.22    0.60
  WS02003072WS02003073 CONDUIT    954.49     0  01:58      1.74    2.06    0.49
  WS02003069WS02003072 CONDUIT    954.49     0  01:57      1.63    0.46    0.51
  WS02003060WS02003069 CONDUIT    954.20     0  01:57      1.87    0.37    0.46
  WS02003059WS02003060 CONDUIT    293.70     0  02:01      0.82    0.19    0.66
  HS02004901HS02004770 CONDUIT     17.82     0  01:38      0.06    0.07    0.40
  HS02004876HS02004881 CONDUIT     67.33     0  01:43      0.89    0.72    0.11
  HS02004870HS02004876 CONDUIT     54.05     0  01:43      0.61    0.04    0.13
  HS02004842HS02004848 CONDUIT     10.09     0  01:58      0.05    0.01    0.30
  HS02004837HS02004842 CONDUIT     10.33     0  02:00      0.41    0.01    0.31
  HS02004830HS02004837 CONDUIT     38.21     0  01:51      0.54    0.04    0.10
  HS02004824HS02004830 CONDUIT     38.37     0  01:52      0.57    0.05    0.10
  HS02004817HS02004824 CONDUIT     71.73     0  01:54      0.22    0.03    0.46
  HS02004770HS02004777 CONDUIT     92.16     0  01:38      0.32    0.17    0.41
  HS02004799HS02004480 CONDUIT    230.85     0  01:40      0.78    0.29    0.42
  HS02004792HS02004799 CONDUIT    210.29     0  01:40      0.89    0.13    0.34
  HS02004788HS02004792 CONDUIT    122.00     0  01:40      1.02    0.08    0.17
  HS02004785HS02004788 CONDUIT     92.09     0  01:40      0.67    0.69    0.20
  HS02004777HS02004785 CONDUIT     91.99     0  01:39      0.39    0.11    0.34
  HS02004480HS02004478 CONDUIT    273.63     0  01:41      1.21    1.15    0.32
  HS02004479HS02004480 CONDUIT     43.48     0  01:42      0.30    0.04    0.41
  HS02004862HS02004870 CONDUIT     40.54     0  01:45      0.62    0.04    0.09
  HS02004848HS02004852 CONDUIT     17.93     0  01:51      0.42    0.02    0.06
  HS02004856HS02004862 CONDUIT     27.96     0  01:44      0.46    0.03    0.09
  HS02004852HS02004856 CONDUIT     17.92     0  01:52      0.22    0.02    0.12
  HS02004802HS02004478 CONDUIT     96.20     0  01:53      0.42    0.08    0.34
  HS02004478WS02006287 CONDUIT    366.22     0  01:42      1.67    0.10    0.24
  HS02004817HS02004807 CONDUIT     72.77     0  01:55      0.17    0.04    0.61
  HS02004807HS02004802 CONDUIT     95.92     0  01:53      0.36    0.18    0.39
  YS02001759YS02001757 CONDUIT    539.10     0  02:13      0.69    0.38    1.00
  YS02001762YS02001759 CONDUIT    277.72     0  02:12      0.35    0.32    1.00
  YS02001765YS02001762 CONDUIT    276.96     0  02:12      0.35    0.26    1.00
  YS02001770YS02001767 CONDUIT    275.04     0  02:26      0.42    1.09    1.00
  YS02001774YS02001770 CONDUIT    301.33     0  02:59      0.38    0.19    1.00
  YS02001779YS02001774 CONDUIT    301.35     0  02:59      0.38    0.15    1.00
  YS02001649YS02001757 CONDUIT    847.02     0  02:20      1.08    0.51    1.00
  YS02001767YS02001765 CONDUIT    276.15     0  02:12      0.38    0.35    1.00
  YS02006561YS02001783 CONDUIT    899.52     0  02:30      2.12    0.47    1.00
  YS02001783YS02001784 CONDUIT    899.48     0  02:30      1.79    1.24    1.00
  YS02001784YS02001785 CONDUIT    900.51     0  02:29      1.79    2.10    1.00
  YS02001788YS02001790 CONDUIT    900.67     0  02:30      2.32    0.66    1.00
  YS02001790YS02001791 CONDUIT    900.85     0  02:30      2.85    0.98    1.00
  YS02001791YS02001793 CONDUIT    900.84     0  02:30      5.70    0.39    1.00
  YS02001910YS02001907 CONDUIT    319.77     0  03:05      0.49    0.18    1.00
  YS02001786YS02001788 CONDUIT    900.53     0  02:30      2.22    1.74    1.00
  YS02001915YS02001910 CONDUIT    319.78     0  03:05      0.58    0.16    1.00
  YS02001918YS02001915 CONDUIT    144.79     0  03:07      0.44    0.08    1.00
  YS02001923YS02001920 CONDUIT    130.08     0  02:52      0.68    0.06    0.90
  YS02001926YS02001923 CONDUIT    115.32     0  02:52      0.78    0.16    0.61
  YS02001929YS02001926 CONDUIT    122.65     0  02:52      0.83    0.06    0.49
  YS02001920YS02001918 CONDUIT    137.37     0  02:52      0.67    0.13    1.00
  YS02001629YS02163301 CONDUIT    212.86     0  02:02      0.27    0.26    1.00
  YS02001619YS02001622 CONDUIT    195.20     0  02:01      0.73    0.29    1.00
  YS02001622YS02001625 CONDUIT    203.36     0  02:01      0.36    0.11    1.00
  YS02001625YS02001629 CONDUIT    203.44     0  02:01      0.30    0.10    1.00
  YS02163301YS02001633 CONDUIT    212.60     0  02:02      0.27    0.20    1.00
  YS02163601YS02164001 CONDUIT    399.65     0  02:05      0.51    0.35    1.00
  YS02164001YS02001641 CONDUIT    399.74     0  02:05      0.51    0.55    1.00
  YS02001641YS02001644 CONDUIT    400.16     0  02:05      0.51    1.29    1.00
  YS02001647YS02001649 CONDUIT    606.04     0  02:21      0.77    0.32    1.00
  YS02006553YS02006556 CONDUIT    619.95     0  02:33      0.79    0.53    1.00
  YS02006556YS02006558 CONDUIT    620.11     0  02:33      0.79    0.49    1.00
  YSB6556YSB1171       CONDUIT     24.43     0  01:43      0.09    0.03    0.68
  YS02001907YS02006553 CONDUIT    619.98     0  02:33      0.69    0.73    1.00
  YS02006558YS02006561 CONDUIT    899.35     0  02:30      3.18    1.99    1.00
  YS02001633YS02163601 CONDUIT    399.48     0  02:05      0.51    0.42    1.00
  YS02001644YS02001647 CONDUIT    605.87     0  02:21      0.77    0.36    1.00
  YS02001745YS02001748 CONDUIT    591.93     0  02:08      1.65    0.23    0.94
  YS02001748YS02001751 CONDUIT    402.90     0  02:00      1.23    0.20    1.00
  YS02001751YS02001754 CONDUIT    246.91     0  02:07      1.05    0.12    1.00
  YS02001754YS02001757 CONDUIT    247.22     0  02:07      0.33    0.10    1.00
  YS02001882YS02001884 CONDUIT     21.59     0  02:01      0.15    0.02    1.00
  YS02001884YS02001887 CONDUIT     45.99     0  02:01      0.11    0.06    1.00
  YS02001890YS02001895 CONDUIT    343.17     0  02:11      0.47    0.16    1.00
  YS02001895YS02001898 CONDUIT    353.07     0  02:11      0.58    0.61    1.00
  YS02001898YS02001901 CONDUIT    344.05     0  02:11      0.51    0.22    1.00
  YS02001901YS02001904 CONDUIT    343.86     0  02:11      0.47    0.53    1.00
  YS02001904YS02001907 CONDUIT    343.76     0  02:11      0.44    0.12    1.00
  YS02001887YS02001890 CONDUIT    342.37     0  02:11      0.44    0.59    1.00
  YS02001652YS02001649 CONDUIT    317.88     0  02:04      0.61    0.16    1.00
  YS02001655YS02001652 CONDUIT    317.44     0  02:04      1.11    0.15    1.00
  YS02001658YS02001655 CONDUIT    442.52     0  01:59      1.42    0.19    1.00
  YS02001661YS02001658 CONDUIT    637.36     0  02:04      1.73    0.25    1.00
  YS02001664YS02001661 CONDUIT    633.32     0  02:24      1.63    0.20    0.71
  YSB1154YSB6556       CONDUIT     24.02     0  01:41      0.15    0.04    0.57
  YSB1174YSB1171       CONDUIT     20.02     0  01:36      0.07    0.03    0.68
  YSB1171HS02004479    CONDUIT     43.16     0  01:41      0.54    0.03    0.54
  HS02004881HS02006253 CONDUIT     74.61     0  01:43      2.04    0.01    0.19
  YS02001793JiankangQianchi CONDUIT    900.92     0  02:30     13.78    0.07    1.00
  YS02001757CaochengTiaoxuchi CONDUIT   1575.91     0  02:21      2.49    0.69    1.00
  WSF200WS02003060     CONDUIT    649.76     0  01:53      1.94    0.14    0.36
  1                    CONDUIT    956.28     0  01:58      3.29    0.33    0.40
  2                    CONDUIT     55.92     0  01:46      4.11    0.13    0.25
  3                    CONDUIT    521.46     0  02:10      9.85    0.83    0.70
  4                    CONDUIT      0.00     0  00:00      0.00    0.00    0.00
  CC-Pump-1            PUMP       200.00     0  01:35              1.00
  CC-Pump-2            PUMP       200.00     0  02:10              1.00
  JK-Pump-1            PUMP       300.00     0  00:00              1.00
  JK-Pump-2            PUMP       300.00     0  01:36              1.00
  XR-Pump-1            PUMP        95.00     0  00:20              1.00
  XR-Pump-2            PUMP        95.00     0  00:00              1.00
  XR-Pump-3            PUMP        95.00     0  00:20              1.00
  XR-Pump-4            PUMP        95.00     0  00:00              1.00
  
  
  ***************************
  Flow Classification Summary
  ***************************
  
  -------------------------------------------------------------------------------------
                      Adjusted    ---------- Fraction of Time in Flow Class ---------- 
                       /Actual         Up    Down  Sub   Sup   Up    Down  Norm  Inlet 
  Conduit               Length    Dry  Dry   Dry   Crit  Crit  Crit  Crit  Ltd   Ctrl  
  -------------------------------------------------------------------------------------
  WS02003066WSF200        1.00   0.05  0.00  0.00  0.00  0.95  0.00  0.00  0.63  0.00
  WS02006287WS02006284    1.00   0.03  0.01  0.00  0.59  0.37  0.00  0.00  0.72  0.00
  WS02006284WS02006280    1.00   0.04  0.00  0.00  0.00  0.00  0.00  0.96  0.00  0.00
  WS02006280WS02006229    1.00   0.04  0.00  0.00  0.00  0.00  0.00  0.96  0.00  0.00
  WS02006229WS02006228    1.00   0.00  0.00  0.00  0.99  0.00  0.00  0.01  0.00  0.00
  WS02006256WS02006235    1.00   0.00  0.00  0.00  1.00  0.00  0.00  0.00  0.00  0.00
  WS02006253WS02006251    1.00   0.02  0.01  0.00  0.96  0.00  0.00  0.00  0.00  0.00
  WS02006252WS02006251    1.00   0.05  0.00  0.00  0.00  0.00  0.95  0.00  0.00  0.00
  WS02006251WS02006249    1.00   0.00  0.00  0.00  1.00  0.00  0.00  0.00  0.16  0.00
  WS02006249WS02006248    1.00   0.00  0.02  0.00  0.95  0.00  0.03  0.00  0.00  0.00
  WS02006248WS02006247    1.00   0.02  0.00  0.00  0.98  0.00  0.00  0.00  0.05  0.00
  WS02006247WS02006245    1.00   0.02  0.00  0.00  0.98  0.00  0.00  0.00  0.00  0.00
  WS02006245WS02006243    1.00   0.01  0.00  0.00  0.96  0.00  0.00  0.02  0.01  0.00
  WS02006243WS02006242    1.00   0.01  0.00  0.00  0.99  0.00  0.00  0.00  0.15  0.00
  WS02006242WS02006240    1.00   0.00  0.00  0.00  0.99  0.00  0.00  0.00  0.00  0.00
  WS02006240WS02006239    1.00   0.00  0.00  0.00  0.98  0.00  0.00  0.02  0.01  0.00
  WS02006239WS02006238    1.00   0.00  0.00  0.00  1.00  0.00  0.00  0.00  0.00  0.00
  WS02006238WS02006235    1.00   0.00  0.00  0.00  1.00  0.00  0.00  0.00  0.00  0.00
  WS02006235WS02006234    1.00   0.00  0.00  0.00  0.98  0.00  0.02  0.00  0.00  0.00
  WS02006234WS02006232    1.00   0.00  0.00  0.00  1.00  0.00  0.00  0.00  0.07  0.00
  WS02006232WS02006231    1.00   0.00  0.00  0.00  0.99  0.00  0.00  0.00  0.00  0.00
  WS02006231WS02006230    1.00   0.00  0.00  0.00  0.61  0.00  0.38  0.00  0.00  0.00
  WS02006230WS02006229    1.00   0.00  0.00  0.00  0.99  0.00  0.00  0.01  0.01  0.00
  WS02006228WS02006109    1.00   0.00  0.00  0.00  1.00  0.00  0.00  0.00  0.00  0.00
  WS02006116WS02004401    1.00   0.02  0.00  0.00  0.98  0.00  0.00  0.00  0.00  0.00
  WS02006115WS02006116    1.00   0.02  0.00  0.00  0.97  0.00  0.00  0.00  0.00  0.00
  WS02006113WS02006111    1.00   0.02  0.00  0.00  0.00  0.98  0.00  0.00  0.09  0.00
  WS02006112WS02006115    1.00   0.02  0.00  0.00  0.98  0.00  0.00  0.00  0.00  0.00
  WS02006111WS02006112    1.00   0.02  0.00  0.00  0.98  0.00  0.00  0.00  0.93  0.00
  WS02006110WS02006113    1.00   0.01  0.01  0.00  0.98  0.00  0.00  0.00  0.00  0.00
  WS02006109WS02006110    1.00   0.00  0.01  0.00  0.98  0.00  0.01  0.00  0.00  0.00
  WS02004411WS02004412    1.00   0.03  0.00  0.00  0.97  0.00  0.00  0.00  0.00  0.00
  WS02004401WS02004402    1.00   0.02  0.00  0.00  0.98  0.00  0.00  0.00  0.00  0.00
  WS02004413WS02003067    1.00   0.03  0.01  0.00  0.00  0.00  0.95  0.00  0.00  0.00
  WS02004412WS02004413    1.00   0.03  0.00  0.00  0.97  0.00  0.00  0.00  0.03  0.00
  WS02004410WS02004411    1.00   0.03  0.00  0.00  0.97  0.00  0.00  0.00  0.03  0.00
  WS02004409WS02004410    1.00   0.03  0.00  0.00  0.97  0.00  0.00  0.00  0.00  0.00
  WS02004407WS02004409    1.00   0.03  0.00  0.00  0.97  0.00  0.00  0.00  0.89  0.00
  WS02004406WS02004407    1.00   0.00  0.03  0.00  0.97  0.00  0.00  0.00  0.00  0.00
  WS02004405WS02004406    1.00   0.00  0.00  0.00  1.00  0.00  0.00  0.00  0.01  0.00
  WS02004404WS02004405    1.00   0.00  0.00  0.00  1.00  0.00  0.00  0.00  0.00  0.00
  WS02004403WS02004404    1.00   0.00  0.02  0.00  0.98  0.00  0.00  0.00  0.01  0.00
  WS02004402WS02004403    1.00   0.02  0.00  0.00  0.98  0.00  0.00  0.00  0.00  0.00
  WS02004139WS02001211    1.00   0.00  0.00  0.00  1.00  0.00  0.00  0.00  0.00  0.00
  WS02004138WS02004139    1.00   0.00  0.00  0.00  0.99  0.01  0.00  0.00  1.00  0.00
  WS02003067WS02003066    1.00   0.05  0.00  0.00  0.95  0.00  0.00  0.00  0.00  0.00
  WS02001213WS02003059    1.00   0.00  0.00  0.00  0.99  0.00  0.00  0.00  0.00  0.00
  WS02001212WS02001213    1.00   0.00  0.00  0.00  0.93  0.00  0.06  0.00  0.00  0.00
  WS02001211WS02001212    1.00   0.00  0.00  0.00  1.00  0.00  0.00  0.00  0.00  0.00
  WS02003072WS02003073    1.00   0.00  0.00  0.00  0.00  0.00  0.00  1.00  0.00  0.00
  WS02003069WS02003072    1.00   0.00  0.00  0.00  1.00  0.00  0.00  0.00  0.18  0.00
  WS02003060WS02003069    1.00   0.00  0.00  0.00  0.99  0.01  0.00  0.00  0.01  0.00
  WS02003059WS02003060    1.00   0.00  0.00  0.00  1.00  0.00  0.00  0.00  0.01  0.00
  HS02004901HS02004770    1.00   0.04  0.00  0.00  0.96  0.00  0.00  0.00  0.00  0.00
  HS02004876HS02004881    1.00   0.02  0.00  0.00  0.90  0.08  0.00  0.00  0.00  0.00
  HS02004870HS02004876    1.00   0.00  0.00  0.00  0.99  0.00  0.00  0.00  0.95  0.00
  HS02004842HS02004848    1.00   0.00  0.04  0.00  0.96  0.00  0.00  0.00  0.59  0.00
  HS02004837HS02004842    1.00   0.00  0.00  0.00  0.99  0.01  0.00  0.00  0.11  0.00
  HS02004830HS02004837    1.00   0.00  0.00  0.00  1.00  0.00  0.00  0.00  0.99  0.00
  HS02004824HS02004830    1.00   0.00  0.00  0.00  1.00  0.00  0.00  0.00  0.00  0.00
  HS02004817HS02004824    1.00   0.00  0.00  0.00  1.00  0.00  0.00  0.00  1.00  0.00
  HS02004770HS02004777    1.00   0.00  0.04  0.00  0.96  0.00  0.00  0.00  0.02  0.00
  HS02004799HS02004480    1.00   0.00  0.02  0.00  0.96  0.00  0.02  0.00  0.00  0.00
  HS02004792HS02004799    1.00   0.00  0.00  0.00  0.99  0.01  0.00  0.00  0.98  0.00
  HS02004788HS02004792    1.00   0.00  0.00  0.00  0.99  0.01  0.00  0.00  0.98  0.00
  HS02004785HS02004788    1.00   0.00  0.00  0.00  1.00  0.00  0.00  0.00  0.00  0.00
  HS02004777HS02004785    1.00   0.00  0.00  0.00  1.00  0.00  0.00  0.00  0.12  0.00
  HS02004480HS02004478    1.00   0.04  0.00  0.00  0.64  0.00  0.00  0.32  0.00  0.00
  HS02004479HS02004480    1.00   0.02  0.00  0.00  0.98  0.00  0.00  0.00  0.11  0.00
  HS02004862HS02004870    1.00   0.00  0.00  0.00  1.00  0.00  0.00  0.00  0.03  0.00
  HS02004848HS02004852    1.00   0.04  0.00  0.00  0.96  0.00  0.00  0.00  0.78  0.00
  HS02004856HS02004862    1.00   0.00  0.04  0.00  0.96  0.00  0.00  0.00  0.83  0.00
  HS02004852HS02004856    1.00   0.04  0.00  0.00  0.96  0.00  0.00  0.00  0.86  0.00
  HS02004802HS02004478    1.00   0.04  0.00  0.00  0.96  0.00  0.00  0.00  0.02  0.00
  HS02004478WS02006287    1.00   0.04  0.00  0.00  0.75  0.21  0.00  0.00  0.69  0.00
  HS02004817HS02004807    1.00   0.00  0.04  0.00  0.96  0.00  0.00  0.00  0.01  0.00
  HS02004807HS02004802    1.00   0.04  0.00  0.00  0.96  0.00  0.00  0.00  0.00  0.00
  YS02001759YS02001757    1.00   0.00  0.00  0.00  1.00  0.00  0.00  0.00  0.16  0.00
  YS02001762YS02001759    1.00   0.00  0.00  0.00  1.00  0.00  0.00  0.00  0.03  0.00
  YS02001765YS02001762    1.00   0.00  0.00  0.00  1.00  0.00  0.00  0.00  0.13  0.00
  YS02001770YS02001767    1.00   0.00  0.00  0.00  1.00  0.00  0.00  0.00  0.00  0.00
  YS02001774YS02001770    1.00   0.00  0.04  0.00  0.96  0.00  0.00  0.00  0.03  0.00
  YS02001779YS02001774    1.00   0.00  0.00  0.00  1.00  0.00  0.00  0.00  0.17  0.00
  YS02001649YS02001757    1.00   0.00  0.00  0.00  1.00  0.00  0.00  0.00  0.16  0.00
  YS02001767YS02001765    1.00   0.00  0.00  0.00  1.00  0.00  0.00  0.00  0.00  0.00
  YS02006561YS02001783    1.00   0.04  0.00  0.00  0.29  0.67  0.00  0.00  0.51  0.00
  YS02001783YS02001784    1.00   0.00  0.04  0.00  0.96  0.00  0.00  0.00  0.00  0.00
  YS02001784YS02001785    1.00   0.00  0.00  0.00  1.00  0.00  0.00  0.00  0.16  0.00
  YS02001788YS02001790    1.00   0.00  0.00  0.00  0.34  0.66  0.00  0.00  0.50  0.00
  YS02001790YS02001791    1.00   0.00  0.00  0.00  0.31  0.69  0.00  0.00  0.56  0.00
  YS02001791YS02001793    1.00   0.00  0.00  0.00  0.31  0.69  0.00  0.00  0.01  0.00
  YS02001910YS02001907    1.00   0.00  0.00  0.00  0.98  0.00  0.00  0.02  0.12  0.00
  YS02001786YS02001788    1.00   0.00  0.00  0.00  0.32  0.68  0.00  0.00  0.00  0.00
  YS02001915YS02001910    1.00   0.00  0.00  0.00  0.99  0.01  0.00  0.00  0.14  0.00
  YS02001918YS02001915    1.00   0.00  0.01  0.00  0.98  0.01  0.00  0.00  0.58  0.00
  YS02001923YS02001920    1.00   0.00  0.00  0.00  1.00  0.00  0.00  0.00  0.83  0.00
  YS02001926YS02001923    1.00   0.00  0.03  0.00  0.17  0.00  0.80  0.00  0.00  0.00
  YS02001929YS02001926    1.00   0.00  0.04  0.00  0.96  0.00  0.00  0.00  0.79  0.00
  YS02001920YS02001918    1.00   0.00  0.00  0.00  1.00  0.00  0.00  0.00  0.00  0.00
  YS02001629YS02163301    1.00   0.04  0.00  0.00  0.96  0.00  0.00  0.00  0.00  0.00
  YS02001619YS02001622    1.00   0.04  0.00  0.00  0.96  0.00  0.00  0.00  0.00  0.00
  YS02001622YS02001625    1.00   0.04  0.00  0.00  0.96  0.00  0.00  0.00  0.04  0.00
  YS02001625YS02001629    1.00   0.04  0.01  0.00  0.95  0.00  0.01  0.00  0.00  0.00
  YS02163301YS02001633    1.00   0.00  0.04  0.00  0.96  0.00  0.00  0.00  0.00  0.00
  YS02163601YS02164001    1.00   0.00  0.03  0.00  0.97  0.00  0.00  0.00  0.00  0.00
  YS02164001YS02001641    1.00   0.01  0.02  0.00  0.97  0.00  0.00  0.00  0.06  0.00
  YS02001641YS02001644    1.00   0.00  0.01  0.00  0.99  0.00  0.00  0.00  0.00  0.00
  YS02001647YS02001649    1.00   0.00  0.04  0.00  0.96  0.00  0.00  0.00  0.01  0.00
  YS02006553YS02006556    1.00   0.01  0.00  0.00  0.99  0.00  0.00  0.00  0.03  0.00
  YS02006556YS02006558    1.00   0.00  0.00  0.00  1.00  0.00  0.00  0.00  0.00  0.00
  YSB6556YSB1171          1.00   0.02  0.01  0.00  0.96  0.00  0.00  0.00  0.00  0.00
  YS02001907YS02006553    1.00   0.00  0.02  0.00  0.98  0.00  0.00  0.00  0.00  0.00
  YS02006558YS02006561    1.00   0.04  0.00  0.00  0.22  0.74  0.00  0.00  0.49  0.00
  YS02001633YS02163601    1.00   0.00  0.01  0.00  0.99  0.00  0.00  0.00  0.15  0.00
  YS02001644YS02001647    1.00   0.00  0.04  0.00  0.96  0.00  0.00  0.00  0.00  0.00
  YS02001745YS02001748    1.00   0.00  0.00  0.00  0.93  0.00  0.00  0.07  0.03  0.00
  YS02001748YS02001751    1.00   0.00  0.00  0.00  0.98  0.02  0.00  0.00  0.14  0.00
  YS02001751YS02001754    1.00   0.00  0.00  0.00  0.95  0.00  0.00  0.05  0.01  0.00
  YS02001754YS02001757    1.00   0.00  0.00  0.00  0.99  0.01  0.00  0.00  0.17  0.00
  YS02001882YS02001884    1.00   0.04  0.00  0.00  0.96  0.00  0.00  0.00  0.00  0.00
  YS02001884YS02001887    1.00   0.03  0.01  0.00  0.97  0.00  0.00  0.00  0.00  0.00
  YS02001890YS02001895    1.00   0.00  0.04  0.00  0.96  0.00  0.00  0.00  0.00  0.00
  YS02001895YS02001898    1.00   0.04  0.00  0.00  0.95  0.00  0.00  0.00  0.00  0.00
  YS02001898YS02001901    1.00   0.04  0.00  0.00  0.96  0.00  0.00  0.00  0.01  0.00
  YS02001901YS02001904    1.00   0.04  0.00  0.00  0.96  0.00  0.00  0.00  0.00  0.00
  YS02001904YS02001907    1.00   0.00  0.04  0.00  0.96  0.00  0.00  0.00  0.00  0.00
  YS02001887YS02001890    1.00   0.00  0.00  0.00  0.98  0.00  0.02  0.00  0.00  0.00
  YS02001652YS02001649    1.00   0.00  0.00  0.00  1.00  0.00  0.00  0.00  0.15  0.00
  YS02001655YS02001652    1.00   0.00  0.00  0.00  0.95  0.00  0.00  0.05  0.01  0.00
  YS02001658YS02001655    1.00   0.00  0.04  0.00  0.95  0.01  0.00  0.00  0.02  0.00
  YS02001661YS02001658    1.00   0.04  0.00  0.00  0.93  0.03  0.00  0.00  0.03  0.00
  YS02001664YS02001661    1.00   0.04  0.00  0.00  0.90  0.06  0.00  0.00  0.15  0.00
  YSB1154YSB6556          1.00   0.04  0.00  0.00  0.96  0.00  0.00  0.00  0.01  0.00
  YSB1174YSB1171          1.00   0.02  0.01  0.00  0.97  0.00  0.00  0.00  0.00  0.00
  YSB1171HS02004479       1.00   0.02  0.00  0.00  0.97  0.00  0.00  0.00  0.10  0.00
  HS02004881HS02006253    1.00   0.03  0.00  0.00  0.94  0.00  0.00  0.03  0.80  0.00
  YS02001793JiankangQianchi    1.00   0.00  0.00  0.00  0.42  0.58  0.00  0.00  0.10  0.00
  YS02001757CaochengTiaoxuchi    1.00   0.00  0.05  0.00  0.91  0.03  0.00  0.00  0.00  0.00
  WSF200WS02003060        1.00   0.00  0.05  0.00  0.06  0.89  0.00  0.00  0.01  0.00
  1                       1.00   0.00  0.00  0.00  0.00  1.00  0.00  0.00  0.50  0.00
  2                       1.00   0.83  0.00  0.00  0.00  0.17  0.00  0.00  0.02  0.00
  3                       1.00   0.03  0.00  0.00  0.00  0.97  0.00  0.00  0.17  0.00
  4                       1.00   1.00  0.00  0.00  0.00  0.00  0.00  0.00  0.00  0.00
  
  
  *************************
  Conduit Surcharge Summary
  *************************
  
  ----------------------------------------------------------------------------
                                                           Hours        Hours 
                         --------- Hours Full --------   Above Full   Capacity
  Conduit                Both Ends  Upstream  Dnstream   Normal Flow   Limited
  ----------------------------------------------------------------------------
  WS02006229WS02006228        1.86      1.92      1.86      6.29         1.86
  WS02006256WS02006235        6.42      6.43      6.97      5.47         0.01
  WS02006249WS02006248        0.01      0.01      0.01      6.24         0.01
  WS02006247WS02006245        0.01      0.01      0.01      6.24         0.01
  WS02006243WS02006242        0.01      0.01      0.96      0.01         0.01
  WS02006242WS02006240        0.70      0.70      1.13      0.01         0.01
  WS02006240WS02006239        0.80      0.80      0.97      0.01         0.01
  WS02006239WS02006238        1.22      1.22      1.40      0.01         0.01
  WS02006238WS02006235        1.35      1.35      1.52      0.01         0.01
  WS02006235WS02006234        1.00      1.00      1.26      6.44         0.01
  WS02006234WS02006232        1.13      1.13      1.65      0.01         0.01
  WS02006232WS02006231        0.66      0.66      1.65      0.01         0.01
  WS02006231WS02006230        0.50      0.50      0.72      6.43         0.01
  WS02006230WS02006229        2.68      6.28      2.68      6.52         2.67
  WS02006228WS02006109        1.89      2.13      1.89      6.32         1.89
  WS02006112WS02006115        0.01      0.01      1.31      0.01         0.01
  WS02006111WS02006112        0.01      0.01      6.25      0.01         0.01
  WS02006110WS02006113        0.01      0.01      1.99      0.01         0.01
  WS02006109WS02006110        0.99      0.99      2.13      0.99         0.01
  WS02004406WS02004407        0.01      0.01      0.33      0.01         0.01
  WS02004405WS02004406        0.33      0.44      0.33      1.13         0.33
  WS02004404WS02004405        0.44      0.54      0.44      6.34         0.44
  WS02004403WS02004404        0.01      0.01      0.54      0.01         0.01
  WS02003072WS02003073        0.01      0.01      0.01      3.53         0.01
  HS02004480HS02004478        0.01      0.01      0.01      0.41         0.01
  YS02001759YS02001757        6.15      6.15      6.19      0.01         0.01
  YS02001762YS02001759        6.14      6.14      6.15      0.01         0.01
  YS02001765YS02001762        6.13      6.13      6.14      0.01         0.01
  YS02001770YS02001767        6.12      6.13      6.12      0.44         0.75
  YS02001774YS02001770        6.11      6.11      6.14      0.01         0.01
  YS02001779YS02001774        5.95      5.95      6.14      0.01         0.01
  YS02001649YS02001757        6.14      6.14      6.19      0.01         0.01
  YS02001767YS02001765        6.12      6.12      6.13      0.01         0.01
  YS02006561YS02001783        0.59      0.59      1.46      0.01         0.01
  YS02001783YS02001784        1.45      1.46      1.48      1.33         1.18
  YS02001784YS02001785        1.46      1.48      1.46      2.21         1.46
  YS02001788YS02001790        1.44      1.44      1.64      0.01         0.01
  YS02001790YS02001791        1.64      1.64      1.68      0.01         0.03
  YS02001791YS02001793        1.68      1.68      1.84      0.01         0.01
  YS02001910YS02001907        1.19      1.19      1.68      0.01         0.01
  YS02001786YS02001788        1.44      1.46      1.44      1.90         1.44
  YS02001915YS02001910        0.89      0.89      1.19      0.01         0.01
  YS02001918YS02001915        0.01      0.01      0.89      0.01         0.01
  YS02001923YS02001920        0.01      0.01      0.26      0.01         0.01
  YS02001920YS02001918        0.01      0.01      0.26      0.01         0.01
  YS02001629YS02163301        6.10      6.10      6.11      0.01         0.01
  YS02001619YS02001622        5.78      5.78      5.81      0.01         0.01
  YS02001622YS02001625        5.81      5.81      6.09      0.01         0.01
  YS02001625YS02001629        5.79      5.79      6.09      0.01         0.01
  YS02163301YS02001633        6.11      6.11      6.12      0.01         0.01
  YS02163601YS02164001        6.12      6.12      6.15      0.01         0.01
  YS02164001YS02001641        6.12      6.12      6.13      0.01         0.02
  YS02001641YS02001644        6.13      6.13      6.13      1.41         1.33
  YS02001647YS02001649        6.07      6.07      6.14      0.01         0.01
  YS02006553YS02006556        1.42      1.42      1.75      0.01         0.01
  YS02006556YS02006558        1.58      1.58      1.80      0.01         0.01
  YS02001907YS02006553        2.23      2.23      2.42      0.01         0.01
  YS02006558YS02006561        1.04      1.37      1.04      2.10         1.04
  YS02001633YS02163601        6.12      6.12      6.15      0.01         0.01
  YS02001644YS02001647        6.07      6.07      6.13      0.01         0.01
  YS02001745YS02001748        0.01      0.01      5.57      0.01         0.01
  YS02001748YS02001751        5.65      5.65      5.78      0.01         0.01
  YS02001751YS02001754        5.78      5.78      5.97      0.01         0.01
  YS02001754YS02001757        6.04      6.04      6.19      0.01         0.01
  YS02001882YS02001884        0.92      0.92      0.97      0.01         0.01
  YS02001884YS02001887        1.05      1.05      1.09      0.01         0.01
  YS02001890YS02001895        0.86      0.86      1.20      0.01         0.01
  YS02001895YS02001898        0.83      0.83      0.86      0.01         0.01
  YS02001898YS02001901        0.88      0.88      1.04      0.01         0.01
  YS02001901YS02001904        1.01      1.01      1.04      0.01         0.01
  YS02001904YS02001907        1.01      1.01      1.75      0.01         0.01
  YS02001887YS02001890        1.13      1.13      1.16      0.01         0.01
  YS02001652YS02001649        6.07      6.07      6.14      0.01         0.01
  YS02001655YS02001652        5.80      5.80      6.02      0.01         0.01
  YS02001658YS02001655        5.63      5.63      5.80      0.01         0.01
  YS02001661YS02001658        0.21      0.21      5.63      0.01         0.01
  YS02001664YS02001661        0.01      0.01      1.22      0.01         0.01
  YS02001793JiankangQianchi        1.80      1.80      2.48      0.01         0.01
  YS02001757CaochengTiaoxuchi        5.45      5.45      6.19      0.01         0.01
  
  
  ***************
  Pumping Summary
  ***************
  
  ---------------------------------------------------------------------------------------------------------
                                                  Min       Avg       Max     Total     Power    % Time Off
                        Percent   Number of      Flow      Flow      Flow    Volume     Usage    Pump Curve
  Pump                 Utilized   Start-Ups       LPS       LPS       LPS  10^6 ltr     Kw-hr    Low   High
  ---------------------------------------------------------------------------------------------------------
  CC-Pump-1                8.04           1      0.00    162.72    200.00     0.370      1.42    0.0   66.2
  CC-Pump-2               74.47           1      0.00    197.14    200.00     4.140      3.21    0.0    0.0
  JK-Pump-1               78.73           2      0.00    224.45    300.00     4.699     60.59    0.0    0.0
  JK-Pump-2               97.86           1      0.00    225.35    300.00     5.120     65.69    0.0    0.0
  XR-Pump-1               97.86           1      0.00     94.81     95.00     2.593     19.07    0.0    0.0
  XR-Pump-2                4.26           1      0.00     88.26     95.00     0.086      1.02    0.0    0.0
  XR-Pump-3               25.52           1      0.00     82.74     95.00     0.627     10.10    0.0    0.0
  XR-Pump-4               27.66           1      0.00     85.83     95.00     0.713     11.11    0.0    0.0
  

  Analysis begun on:  Sun Jan  2 15:01:57 2022
  Analysis ended on:  Sun Jan  2 15:02:01 2022
  Total elapsed time: 00:00:04