
  EPA STORM WATER MANAGEMENT MODEL - VERSION 5.1 (Build 5.3.0.dev0)
  --------------------------------------------------------------

  WARNING 04: minimum elevation drop used for Conduit WS02004404WS02004405
  WARNING 03: negative offset ignored for Link YS02001904YS02001907
  
  *********************************************************
  NOTE: The summary statistics displayed in this report are
  based on results found at every computational time step,  
  not just on results from each reporting time step.
  *********************************************************
  
  ****************
  Analysis Options
  ****************
  Flow Units ............... LPS
  Process Models:
    Rainfall/Runoff ........ YES
    RDII ................... NO
    Snowmelt ............... NO
    Groundwater ............ NO
    Flow Routing ........... YES
    Ponding Allowed ........ NO
    Water Quality .......... NO
  Infiltration Method ...... HORTON
  Flow Routing Method ...... DYNWAVE
  Surcharge Method ......... EXTRAN
  Starting Date ............ 08/28/2015 08:00:00
  Ending Date .............. 08/28/2015 15:50:00
  Antecedent Dry Days ...... 8.0
  Report Time Step ......... 00:01:00
  Wet Time Step ............ 00:01:00
  Dry Time Step ............ 00:01:00
  Routing Time Step ........ 5.00 sec
  Variable Time Step ....... YES
  Maximum Trials ........... 8
  Number of Threads ........ 4
  Head Tolerance ........... 0.001500 m
  
  
  **************************        Volume         Depth
  Runoff Quantity Continuity     hectare-m            mm
  **************************     ---------       -------
  Total Precipitation ......         7.641        16.729
  Evaporation Loss .........         0.000         0.000
  Infiltration Loss ........         1.880         4.117
  Surface Runoff ...........         4.668        10.221
  Final Storage ............         1.093         2.393
  Continuity Error (%) .....        -0.013
  
  
  **************************        Volume        Volume
  Flow Routing Continuity        hectare-m      10^6 ltr
  **************************     ---------     ---------
  Dry Weather Inflow .......         0.616         6.165
  Wet Weather Inflow .......         4.667        46.670
  Groundwater Inflow .......         0.000         0.000
  RDII Inflow ..............         0.000         0.000
  External Inflow ..........         0.102         1.024
  External Outflow .........         3.266        32.662
  Flooding Loss ............         1.865        18.650
  Evaporation Loss .........         0.000         0.000
  Exfiltration Loss ........         0.000         0.000
  Initial Stored Volume ....         0.076         0.761
  Final Stored Volume ......         0.544         5.441
  Continuity Error (%) .....        -3.907
  
  
  *************************
  Highest Continuity Errors
  *************************
  Node JK-storage (-18.68%)
  Node HS02004842 (12.71%)
  Node YS02001884 (11.14%)
  Node HS02004817 (2.32%)
  Node YSB1171 (2.18%)
  
  
  ***************************
  Time-Step Critical Elements
  ***************************
  Link 3 (92.90%)
  Link WS02006252WS02006251 (1.22%)
  
  
  ********************************
  Highest Flow Instability Indexes
  ********************************
  Link WS02006252WS02006251 (72)
  Link YS02163601YS02164001 (51)
  Link YS02163301YS02001633 (50)
  Link YS02001629YS02163301 (49)
  Link YS02001619YS02001622 (49)
  
  
  *************************
  Routing Time Step Summary
  *************************
  Minimum Time Step           :     0.50 sec
  Average Time Step           :     0.71 sec
  Maximum Time Step           :     5.00 sec
  Percent in Steady State     :    -0.00
  Average Iterations per Step :     5.13
  Percent Not Converging      :    25.41
  
  
  ***************************
  Subcatchment Runoff Summary
  ***************************
  
  ------------------------------------------------------------------------------------------------------------------------------
                            Total      Total      Total      Total     Imperv       Perv      Total       Total     Peak  Runoff
                           Precip      Runon       Evap      Infil     Runoff     Runoff     Runoff      Runoff   Runoff   Coeff
  Subcatchment                 mm         mm         mm         mm         mm         mm         mm    10^6 ltr      LPS
  ------------------------------------------------------------------------------------------------------------------------------
  sub0                      16.73       0.00       0.00       0.97      14.29       0.20      14.50        0.01     3.66   0.867
  sub1                      16.73       0.00       0.00       1.58      13.63       0.26      13.89        0.09    24.51   0.830
  sub2                      16.73       0.00       0.00       5.80       9.63       0.39      10.02        0.09    22.91   0.599
  sub3                      16.73       0.00       0.00       5.88       9.59       0.31       9.90        0.22    50.49   0.592
  sub4                      16.73       0.00       0.00       1.65      13.47       0.19      13.66        0.28    60.01   0.817
  sub5                      16.73       0.00       0.00       0.99      14.24       0.18      14.42        0.16    43.61   0.862
  sub7                      16.73       0.00       0.00       1.26      13.97       0.24      14.21        0.05    13.82   0.849
  sub8                      16.73       0.00       0.00       1.27      13.96       0.23      14.19        0.09    25.44   0.848
  sub9                      16.73       0.00       0.00       1.27      13.96       0.23      14.19        0.07    19.02   0.848
  sub10                     16.73       0.00       0.00       1.13      14.10       0.21      14.30        0.16    42.73   0.855
  sub11                     16.73       0.00       0.00       1.12      14.11       0.21      14.33        0.17    47.25   0.857
  sub12                     16.73       0.00       0.00       1.83      13.37       0.35      13.71        0.12    35.87   0.820
  sub14                     16.73       0.00       0.00       1.27      13.95       0.23      14.19        0.14    37.43   0.848
  sub15                     16.73       0.00       0.00       4.53      10.73       0.49      11.22        0.19    51.47   0.671
  sub16                     16.73       0.00       0.00       4.88      10.29       0.64      10.93        0.11    32.57   0.653
  sub17                     16.73       0.00       0.00       4.74      10.44       0.61      11.05        0.09    26.81   0.661
  sub22                     16.73       0.00       0.00       6.60       8.75       0.59       9.34        0.59   160.16   0.558
  sub23                     16.73       0.00       0.00       5.59       9.67       0.60      10.27        0.49   134.74   0.614
  sub60                     16.73       0.00       0.00       1.94      11.65       0.06      11.71        3.55   386.89   0.700
  sub61                     16.73       0.00       0.00       2.75      11.65       0.09      11.73        3.62   476.87   0.701
  sub62                     16.73       0.00       0.00       1.26      12.72       0.07      12.79        3.93   491.27   0.765
  sub63                     16.73       0.00       0.00       4.75      10.14       0.10      10.23        3.10   437.54   0.612
  sub64                     16.73       0.00       0.00       2.45      11.19       0.06      11.26        3.42   367.58   0.673
  sub65                     16.73       0.00       0.00       2.11      11.40       0.06      11.46        3.52   372.98   0.685
  sub66                     16.73       0.00       0.00       4.79       9.55       0.06       9.61        2.95   336.52   0.575
  sub67                     16.73       0.00       0.00       1.24      13.25       0.09      13.35        4.12   605.48   0.798
  sub68                     16.73       0.00       0.00       2.25      12.20       0.10      12.30        3.78   521.64   0.735
  sub69                     16.73       0.00       0.00       2.37      12.50       0.14      12.64        2.95   482.20   0.755
  sub70                     16.73      12.90       0.00       8.98      17.16       1.09      18.25        4.18   460.88   0.616
  sub71                     16.73       0.00       0.00       1.27      12.46       0.07      12.53        2.96   345.19   0.749
  sub72                     16.73       0.00       0.00       1.14      10.39       0.03      10.43        2.12   185.81   0.623
  sub73                     16.73      17.77       0.00       9.78      19.72       1.38      21.10        4.96   482.28   0.612
  sub74                     16.73       0.00       0.00      12.48       3.71       0.07       3.78        1.51   261.10   0.226
  
  
  ******************
  Node Depth Summary
  ******************
  
  ---------------------------------------------------------------------------------
                                 Average  Maximum  Maximum  Time of Max    Reported
                                   Depth    Depth      HGL   Occurrence   Max Depth
  Node                 Type       Meters   Meters   Meters  days hr:min      Meters
  ---------------------------------------------------------------------------------
  WS02001211           JUNCTION     0.77     0.83     5.67     0  02:02        0.83
  WS02001212           JUNCTION     0.49     0.56     5.62     0  02:01        0.56
  WS02001213           JUNCTION     0.73     0.83     5.59     0  02:01        0.83
  WS02003069           JUNCTION     0.54     0.69     5.27     0  02:00        0.69
  WS02003072           JUNCTION     0.60     0.73     5.10     0  02:01        0.73
  WS02003073           JUNCTION     0.37     0.46     4.52     0  02:01        0.46
  WS02003060           JUNCTION     0.48     0.60     5.54     0  02:00        0.60
  WS02003066           JUNCTION     0.27     0.36     5.92     0  01:57        0.36
  WS02003059           JUNCTION     0.78     0.88     5.57     0  02:01        0.88
  WS02003067           JUNCTION     0.64     0.79     6.11     0  01:57        0.79
  WS02004401           JUNCTION     0.79     1.13     7.13     0  01:55        1.13
  WS02004402           JUNCTION     0.81     1.13     7.09     0  01:55        1.13
  WS02004403           JUNCTION     0.83     1.12     7.05     0  01:55        1.12
  WS02004404           JUNCTION     0.90     1.17     7.02     0  01:55        1.17
  WS02004406           JUNCTION     0.89     1.12     6.95     0  01:55        1.12
  WS02004409           JUNCTION     0.60     0.87     6.64     0  01:57        0.87
  WS02004410           JUNCTION     0.61     0.87     6.59     0  01:57        0.87
  WS02004411           JUNCTION     0.62     0.86     6.54     0  01:57        0.86
  WS02004412           JUNCTION     0.63     0.85     6.49     0  01:57        0.85
  WS02004413           JUNCTION     0.78     0.98     6.45     0  01:57        0.98
  WS02004405           JUNCTION     0.89     1.15     7.00     0  01:55        1.15
  WS02006109           JUNCTION     0.89     1.31     7.93     0  01:55        1.30
  WS02006110           JUNCTION     0.85     1.15     7.73     0  01:55        1.14
  WS02006111           JUNCTION     0.29     0.66     7.36     0  01:55        0.66
  WS02006112           JUNCTION     0.98     1.42     7.30     0  01:55        1.41
  WS02006113           JUNCTION     0.41     0.65     7.54     0  01:55        0.65
  WS02006115           JUNCTION     0.69     1.09     7.23     0  01:55        1.09
  WS02006116           JUNCTION     0.77     1.15     7.19     0  01:55        1.15
  WS02006230           JUNCTION     0.92     1.96     8.71     0  01:43        1.43
  WS02006231           JUNCTION     0.64     1.86     8.99     0  01:43        1.07
  WS02006232           JUNCTION     0.77     1.41     8.45     0  01:43        1.16
  WS02006234           JUNCTION     0.72     1.49     8.64     0  01:43        1.05
  WS02006235           JUNCTION     0.75     1.55     8.71     0  01:43        1.05
  WS02006238           JUNCTION     0.78     1.61     8.76     0  01:43        1.07
  WS02006240           JUNCTION     0.70     1.57     8.86     0  01:43        0.95
  WS02006242           JUNCTION     0.76     1.55     8.82     0  01:43        0.99
  WS02006243           JUNCTION     0.65     1.48     8.90     0  01:43        0.85
  WS02006245           JUNCTION     0.62     1.56     9.04     0  01:43        0.80
  WS02006247           JUNCTION     0.63     1.47     8.97     0  01:43        0.80
  WS02006248           JUNCTION     0.57     1.09     8.68     0  01:44        1.07
  WS02006249           JUNCTION     0.58     0.72     8.32     0  01:55        0.72
  WS02006239           JUNCTION     0.75     1.61     8.82     0  01:43        1.02
  WS02006251           JUNCTION     0.61     0.82     8.49     0  01:55        0.82
  WS02006252           JUNCTION     0.54     0.59     8.84     0  03:16        0.59
  WS02006253           JUNCTION     0.63     0.86     8.50     0  01:55        0.86
  WS02006256           JUNCTION     1.16     2.35     9.28     0  00:00        1.25
  WS02004138           JUNCTION     0.19     0.20     7.45     0  00:00        0.19
  WS02004407           JUNCTION     0.27     0.37     6.69     0  01:56        0.37
  WS02006228           JUNCTION     0.91     1.43     8.08     0  01:55        1.43
  WS02006229           JUNCTION     0.91     1.47     8.17     0  01:55        1.47
  WS02006280           JUNCTION     0.09     0.25     8.52     0  01:55        0.25
  WS02006284           JUNCTION     0.39     0.64     9.04     0  01:55        0.64
  WS02006287           JUNCTION     0.13     0.38     9.33     0  01:54        0.38
  WSF200               JUNCTION     0.26     0.40     5.64     0  01:57        0.40
  HS02004901           JUNCTION     0.15     0.36    10.18     0  01:52        0.36
  HS02004881           JUNCTION     0.01     0.05     9.08     0  01:54        0.05
  HS02004876           JUNCTION     0.06     0.16     9.19     0  01:55        0.16
  HS02004870           JUNCTION     0.02     0.09     9.38     0  01:55        0.09
  HS02004862           JUNCTION     0.03     0.11     9.49     0  01:55        0.11
  HS02004856           JUNCTION     0.09     0.15     9.58     0  01:55        0.15
  HS02004852           JUNCTION     0.02     0.07     9.59     0  01:55        0.07
  HS02004848           JUNCTION     0.02     0.07     9.67     0  01:55        0.07
  HS02004842           JUNCTION     0.34     0.40     9.67     0  01:55        0.40
  HS02004837           JUNCTION     0.04     0.09     9.67     0  01:55        0.09
  HS02004830           JUNCTION     0.05     0.10     9.57     0  01:56        0.10
  HS02004824           JUNCTION     0.03     0.12     9.53     0  01:55        0.12
  HS02004817           JUNCTION     0.47     0.69     9.53     0  01:55        0.69
  HS02004807           JUNCTION     0.15     0.36     9.53     0  01:55        0.36
  HS02004802           JUNCTION     0.19     0.39     9.52     0  01:55        0.39
  HS02004799           JUNCTION     0.15     0.45     9.66     0  01:53        0.45
  HS02004792           JUNCTION     0.05     0.20     9.73     0  01:52        0.20
  HS02004788           JUNCTION     0.04     0.15    10.05     0  01:53        0.15
  HS02004785           JUNCTION     0.07     0.23    10.14     0  01:52        0.23
  HS02004777           JUNCTION     0.17     0.37    10.17     0  01:52        0.37
  HS02004770           JUNCTION     0.14     0.35    10.18     0  01:52        0.35
  HS02004480           JUNCTION     0.11     0.37     9.61     0  01:53        0.37
  HS02004479           JUNCTION     0.15     0.41     9.61     0  01:53        0.41
  HS02004478           JUNCTION     0.08     0.27     9.50     0  01:54        0.27
  YS02001745           JUNCTION     0.75     0.91     8.43     0  03:00        0.91
  YS02001748           JUNCTION     1.16     1.60     8.68     0  01:50        1.34
  YS02001751           JUNCTION     1.35     2.09     8.97     0  01:48        1.55
  YS02001754           JUNCTION     1.60     2.04     8.64     0  01:48        1.82
  YS02001762           JUNCTION     1.81     2.04     8.44     0  02:57        2.02
  YS02001765           JUNCTION     1.76     1.98     8.43     0  02:56        1.97
  YS02001767           JUNCTION     1.72     1.94     8.43     0  02:49        1.92
  YS02001770           JUNCTION     1.72     1.95     8.44     0  01:47        1.91
  YS02001774           JUNCTION     1.79     2.05     8.47     0  01:47        1.97
  YS02001779           JUNCTION     1.53     1.68     8.37     0  01:47        1.68
  YS02001882           JUNCTION     0.75     1.65     8.37     0  01:58        1.62
  YS02001884           JUNCTION     0.84     1.75     8.36     0  01:58        1.72
  YS02001759           JUNCTION     1.84     2.08     8.44     0  02:56        2.07
  YS02001887           JUNCTION     0.92     1.81     8.35     0  01:58        1.80
  YS02001890           JUNCTION     0.95     1.81     8.32     0  01:58        1.81
  YS02001898           JUNCTION     0.71     1.57     8.30     0  01:58        1.56
  YS02001901           JUNCTION     0.83     1.68     8.29     0  01:58        1.67
  YS02001904           JUNCTION     0.81     1.64     8.27     0  01:58        1.64
  YS02001907           JUNCTION     1.14     1.96     8.25     0  01:58        1.96
  YS02001910           JUNCTION     0.93     1.79     8.30     0  02:00        1.78
  YS02001915           JUNCTION     0.73     1.61     8.33     0  02:00        1.60
  YS02001918           JUNCTION     0.46     1.32     8.39     0  01:58        1.30
  YS02001619           JUNCTION     1.32     1.61     8.54     0  01:48        1.47
  YS02001629           JUNCTION     1.67     1.85     8.40     0  01:48        1.84
  YS02001641           JUNCTION     1.77     1.93     8.37     0  02:57        1.93
  YS02001644           JUNCTION     1.77     1.92     8.35     0  01:50        1.92
  YS02001652           JUNCTION     1.62     2.16     8.76     0  01:54        2.00
  YS02001655           JUNCTION     1.38     2.20     9.05     0  01:54        2.00
  YS02001920           JUNCTION     0.56     1.39     8.40     0  01:59        1.38
  YS02001923           JUNCTION     0.37     1.16     8.42     0  01:59        1.14
  YS02001926           JUNCTION     0.39     1.03     8.47     0  01:59        0.95
  YS02001929           JUNCTION     0.24     0.77     8.46     0  01:59        0.71
  YS02001658           JUNCTION     1.10     2.30     9.44     0  02:14        2.07
  YS02001661           JUNCTION     0.87     2.46     9.86     0  01:54        1.97
  YS02001664           JUNCTION     0.37     0.57     8.49     0  04:45        0.56
  YS02001622           JUNCTION     1.34     1.62     8.52     0  01:47        1.50
  YS02001633           JUNCTION     1.77     1.95     8.40     0  02:44        1.94
  YS02001649           JUNCTION     1.81     2.05     8.44     0  01:54        2.05
  YS02001757           JUNCTION     1.94     2.18     8.44     0  03:00        2.16
  YS02001895           JUNCTION     0.71     1.57     8.31     0  01:58        1.56
  YS02001625           JUNCTION     1.62     1.78     8.38     0  01:46        1.78
  YS02163301           JUNCTION     1.71     1.88     8.40     0  02:48        1.88
  YS02163601           JUNCTION     1.82     1.99     8.38     0  02:18        1.98
  YS02164001           JUNCTION     1.75     1.92     8.38     0  02:07        1.92
  YS02001647           JUNCTION     1.60     1.80     8.41     0  02:10        1.79
  YSB1154              JUNCTION     0.29     0.56     9.62     0  01:53        0.56
  YSB6556              JUNCTION     0.18     0.44     9.61     0  01:53        0.44
  YSB1174              JUNCTION     0.24     0.50     9.61     0  01:53        0.50
  YSB1171              JUNCTION     0.44     0.71     9.61     0  01:53        0.71
  YS02006553           JUNCTION     1.14     2.16     8.44     0  02:03        1.96
  YS02006561           JUNCTION     0.45     1.75     8.41     0  02:03        1.08
  YS02006556           JUNCTION     1.10     2.37     8.68     0  02:03        1.92
  YS02006558           JUNCTION     1.14     2.49     8.76     0  02:03        1.97
  YS02001783           JUNCTION     0.70     2.28     8.42     0  02:03        1.47
  YS02001784           JUNCTION     0.70     2.29     8.36     0  02:03        1.42
  YS02001786           JUNCTION     0.62     2.23     8.26     0  02:03        1.26
  YS02001788           JUNCTION     0.53     2.28     8.26     0  02:03        1.13
  YS02001790           JUNCTION     0.63     1.96     7.60     0  02:03        1.29
  YS02001791           JUNCTION     0.57     2.16     7.63     0  02:03        1.27
  YS02001793           JUNCTION     0.75     2.05     6.88     0  02:03        1.80
  WS02004139           JUNCTION     0.72     0.77     5.68     0  02:02        0.77
  WSC                  OUTFALL      0.36     0.46     1.13     0  02:02        0.46
  3                    OUTFALL      0.18     0.30     6.30     0  01:53        0.30
  4                    OUTFALL      0.11     0.22     7.22     0  01:55        0.22
  5                    OUTFALL      0.00     0.00     5.00     0  00:00        0.00
  JK-storage           STORAGE      2.55     5.80     6.60     0  02:04        5.80
  CC-storage           STORAGE      1.12     1.37     8.37     0  03:03        1.37
  XR-storage           STORAGE      6.65     7.72     5.72     0  02:07        7.72
  
  
  *******************
  Node Inflow Summary
  *******************
  
  -------------------------------------------------------------------------------------------------
                                  Maximum  Maximum                  Lateral       Total        Flow
                                  Lateral    Total  Time of Max      Inflow      Inflow     Balance
                                   Inflow   Inflow   Occurrence      Volume      Volume       Error
  Node                 Type           LPS      LPS  days hr:min    10^6 ltr    10^6 ltr     Percent
  -------------------------------------------------------------------------------------------------
  WS02001211           JUNCTION      7.35   389.13     0  02:28       0.207         9.7       0.287
  WS02001212           JUNCTION      0.00   390.72     0  02:28           0        9.67       0.179
  WS02001213           JUNCTION      0.00   392.12     0  02:27           0        9.65       0.211
  WS02003069           JUNCTION      0.32  1233.90     0  02:00     0.00902        20.6       0.113
  WS02003072           JUNCTION      0.00  1233.89     0  02:01           0        20.6       0.148
  WS02003073           JUNCTION      1.82  1235.76     0  02:01      0.0514        20.6       0.163
  WS02003060           JUNCTION     16.53  1233.54     0  02:00       0.466        20.6       0.106
  WS02003066           JUNCTION      0.00   834.60     0  01:57           0        10.5       0.034
  WS02003059           JUNCTION      0.00   394.08     0  02:27           0        9.63       0.319
  WS02003067           JUNCTION      0.00   834.54     0  01:57           0        10.6       0.073
  WS02004401           JUNCTION      0.00   834.87     0  01:56           0        10.7       0.156
  WS02004402           JUNCTION      0.00   834.88     0  01:56           0        10.7       0.151
  WS02004403           JUNCTION      0.00   834.88     0  01:56           0        10.7       0.141
  WS02004404           JUNCTION      0.16   835.04     0  01:56     0.00457        10.7       0.109
  WS02004406           JUNCTION      0.00   835.08     0  01:56           0        10.7       0.267
  WS02004409           JUNCTION      0.00   835.07     0  01:56           0        10.6       0.108
  WS02004410           JUNCTION      0.00   834.73     0  01:56           0        10.6       0.128
  WS02004411           JUNCTION      0.00   834.59     0  01:56           0        10.6       0.136
  WS02004412           JUNCTION      0.00   834.54     0  01:57           0        10.6       0.153
  WS02004413           JUNCTION      0.00   834.53     0  01:57           0        10.6       0.238
  WS02004405           JUNCTION      0.04   835.08     0  01:56     0.00107        10.7       0.165
  WS02006109           JUNCTION      1.23   810.08     0  01:54      0.0347        10.7       0.171
  WS02006110           JUNCTION      0.00   810.04     0  01:54           0        10.7       0.136
  WS02006111           JUNCTION      0.00   809.72     0  01:55           0        10.7       0.024
  WS02006112           JUNCTION     26.81   834.95     0  01:56      0.0948        10.8       0.212
  WS02006113           JUNCTION      0.00   809.97     0  01:54           0        10.7       0.055
  WS02006115           JUNCTION      0.00   834.93     0  01:56           0        10.8       0.133
  WS02006116           JUNCTION      0.00   834.87     0  01:56           0        10.8       0.134
  WS02006230           JUNCTION     10.28   402.85     0  05:08        0.29        8.04       0.152
  WS02006231           JUNCTION      0.00   392.55     0  05:08           0        7.75       0.035
  WS02006232           JUNCTION      0.00   392.55     0  05:07           0        7.76       0.148
  WS02006234           JUNCTION      0.00   392.54     0  05:07           0        7.76       0.036
  WS02006235           JUNCTION      0.00   392.54     0  05:07           0        7.82       0.101
  WS02006238           JUNCTION      0.00   308.55     0  07:21           0        5.95       0.068
  WS02006240           JUNCTION      0.00   313.78     0  01:43           0        5.94       0.070
  WS02006242           JUNCTION      0.00   339.95     0  01:42           0        5.93       0.079
  WS02006243           JUNCTION      0.00   371.69     0  01:42           0        5.93      -0.030
  WS02006245           JUNCTION      0.00   385.71     0  01:42           0        5.93       0.042
  WS02006247           JUNCTION      0.00   392.43     0  01:42           0        5.93       0.003
  WS02006248           JUNCTION      0.00   401.03     0  01:41           0        5.93      -0.011
  WS02006249           JUNCTION      0.00   542.78     0  01:55           0        8.84       0.014
  WS02006239           JUNCTION      0.00   308.51     0  07:20           0        5.94       0.085
  WS02006251           JUNCTION      0.08   543.14     0  01:54     0.00217        8.84       0.001
  WS02006252           JUNCTION      0.00   400.00     0  01:40           0         8.3       0.001
  WS02006253           JUNCTION      3.66   142.87     0  01:54      0.0117       0.541      -0.088
  WS02006256           JUNCTION      0.00   632.72     0  01:56           0        11.1       0.019
  WS02004138           JUNCTION      0.00   380.00     0  00:00           0        9.52       0.053
  WS02004407           JUNCTION      0.00   835.09     0  01:56           0        10.6       0.047
  WS02006228           JUNCTION      0.00   808.88     0  01:54           0        10.7       0.109
  WS02006229           JUNCTION      0.00   809.04     0  01:54           0        10.7       0.095
  WS02006280           JUNCTION      0.00   656.04     0  01:55           0         2.7       0.002
  WS02006284           JUNCTION      0.10   655.96     0  01:55      0.0027         2.7       0.040
  WS02006287           JUNCTION      0.00   655.81     0  01:54           0         2.7       0.027
  WSF200               JUNCTION      0.00   834.63     0  01:58           0        10.5       0.031
  HS02004901           JUNCTION     32.57    32.57     0  01:50       0.114       0.115       1.559
  HS02004881           JUNCTION     13.82   139.59     0  01:54      0.0479       0.529       0.084
  HS02004876           JUNCTION     24.51   126.37     0  01:54      0.0923       0.482       0.114
  HS02004870           JUNCTION     25.44   102.13     0  01:54      0.0907        0.39       0.028
  HS02004862           JUNCTION     23.11    77.53     0  01:55       0.099       0.299       0.058
  HS02004856           JUNCTION     19.02    54.51     0  01:55      0.0682       0.202       0.719
  HS02004852           JUNCTION      0.00    36.10     0  01:55           0       0.134       0.042
  HS02004848           JUNCTION     50.49    50.49     0  01:57       0.223       0.223       0.020
  HS02004842           JUNCTION      0.00    15.55     0  02:06           0       0.102      14.561
  HS02004837           JUNCTION     49.08    62.50     0  01:55       0.337       0.426       0.191
  HS02004830           JUNCTION      0.15    62.61     0  01:55     0.00423       0.416       0.297
  HS02004824           JUNCTION     60.06   122.20     0  01:58       0.286       0.702       0.077
  HS02004817           JUNCTION      0.60   124.03     0  01:59      0.0169       0.718       2.378
  HS02004807           JUNCTION     47.25   168.28     0  01:57       0.166       0.868       0.499
  HS02004802           JUNCTION      0.00   169.24     0  01:58           0       0.865       0.460
  HS02004799           JUNCTION     37.43   414.52     0  01:52       0.135        1.57       0.166
  HS02004792           JUNCTION    160.44   377.30     0  01:52       0.598        1.44       0.028
  HS02004788           JUNCTION     53.14   218.54     0  01:52        0.24       0.839       0.046
  HS02004785           JUNCTION      0.15   165.59     0  01:52     0.00423       0.601       0.082
  HS02004777           JUNCTION      0.03   165.80     0  01:51    0.000846       0.601       0.872
  HS02004770           JUNCTION    134.74   166.64     0  01:51        0.49       0.602       0.516
  HS02004480           JUNCTION      0.00   492.23     0  01:53           0        1.85       0.064
  HS02004479           JUNCTION      0.00    78.00     0  01:53           0       0.292       0.252
  HS02004478           JUNCTION      0.00   655.76     0  01:54           0         2.7       0.013
  YS02001745           JUNCTION    386.89   386.89     0  02:16        3.55        3.55       0.277
  YS02001748           JUNCTION      0.04   396.82     0  02:17     0.00127        3.54       0.657
  YS02001751           JUNCTION      0.01   396.78     0  02:17     0.00031        3.52       0.683
  YS02001754           JUNCTION      0.26   396.92     0  02:17     0.00733         3.5       0.705
  YS02001762           JUNCTION      0.00   438.66     0  02:05           0        2.17       0.980
  YS02001765           JUNCTION      0.00   438.72     0  02:05           0        2.17       1.129
  YS02001767           JUNCTION      0.54   438.76     0  02:05      0.0151        2.19       1.651
  YS02001770           JUNCTION    491.42   518.64     0  03:00        3.94         4.1       0.773
  YS02001774           JUNCTION      0.00   519.12     0  03:00           0        2.06       1.224
  YS02001779           JUNCTION      0.01   519.09     0  03:00    0.000141        2.03       0.764
  YS02001882           JUNCTION      0.00    23.44     0  01:52           0      0.0213      12.728
  YS02001884           JUNCTION      0.00    49.56     0  01:52           0      0.0566      12.538
  YS02001759           JUNCTION    476.91   880.09     0  02:07        3.62        5.59       0.409
  YS02001887           JUNCTION    605.93   606.16     0  02:15        4.13        4.16       0.209
  YS02001890           JUNCTION      0.00   606.14     0  02:15           0        4.11       0.235
  YS02001898           JUNCTION      0.00   524.35     0  01:58           0           4       0.076
  YS02001901           JUNCTION      0.00   524.90     0  01:58           0           4       0.186
  YS02001904           JUNCTION      0.00   525.36     0  01:58           0        3.99       0.164
  YS02001907           JUNCTION      0.00  1083.01     0  02:00           0        9.13       0.266
  YS02001910           JUNCTION      0.00   565.03     0  02:00           0        5.15       0.233
  YS02001915           JUNCTION    345.21   564.91     0  02:00        2.96        5.19       0.122
  YS02001918           JUNCTION      0.00   281.12     0  02:00           0        2.25       0.093
  YS02001619           JUNCTION    336.52   336.52     0  02:16        2.95        2.95       0.413
  YS02001629           JUNCTION      0.00   195.54     0  01:50           0        1.44       2.014
  YS02001641           JUNCTION      0.00   408.57     0  01:48           0        4.85       0.433
  YS02001644           JUNCTION    367.62  1305.08     0  03:00        3.42        10.6       0.244
  YS02001652           JUNCTION      0.00   485.07     0  02:14           0        3.05       0.748
  YS02001655           JUNCTION      0.15   485.03     0  02:14     0.00434        3.08       0.836
  YS02001920           JUNCTION      2.87   281.10     0  02:00      0.0809        2.23       0.144
  YS02001923           JUNCTION      0.04   288.36     0  02:00     0.00106        2.14       0.045
  YS02001926           JUNCTION      0.05   208.94     0  02:00     0.00147        2.13       0.154
  YS02001929           JUNCTION    185.81   185.81     0  03:01        2.12        2.12       0.029
  YS02001658           JUNCTION      0.00   508.80     0  02:12           0         3.1       0.714
  YS02001661           JUNCTION      0.00   780.24     0  02:09           0         3.8      -0.165
  YS02001664           JUNCTION    437.54   437.54     0  02:16         3.1        3.81       0.154
  YS02001622           JUNCTION      0.00   336.67     0  02:16           0        2.94       1.092
  YS02001633           JUNCTION    373.18   409.33     0  01:48        3.53        4.92       0.652
  YS02001649           JUNCTION      0.00   943.04     0  02:04           0        6.11       0.607
  YS02001757           JUNCTION      0.00  2148.13     0  02:06           0        12.5       0.730
  YS02001895           JUNCTION      0.00   524.51     0  01:58           0           4       0.134
  YS02001625           JUNCTION      0.00   336.60     0  02:16           0        2.91       1.364
  YS02163301           JUNCTION      0.00   222.85     0  01:48           0        1.44       1.683
  YS02163601           JUNCTION      0.11   409.26     0  01:48      0.0031        4.86       0.617
  YS02164001           JUNCTION      0.00   409.20     0  01:48           0        4.85       0.408
  YS02001647           JUNCTION      0.00   617.43     0  01:50           0        4.67       0.607
  YSB1154              JUNCTION     43.61    43.61     0  01:53       0.163       0.164       0.888
  YSB6556              JUNCTION      0.00    43.64     0  01:53           0       0.165       0.765
  YSB1174              JUNCTION     35.87    35.87     0  01:50        0.12        0.12       1.078
  YSB1171              JUNCTION      0.00    78.04     0  01:52           0       0.291       2.227
  YS02006553           JUNCTION      0.00   701.23     0  01:58           0        7.21       0.216
  YS02006561           JUNCTION      0.00  1145.20     0  02:03           0          11       0.007
  YS02006556           JUNCTION      0.00   701.30     0  01:58           0        7.22       0.159
  YS02006558           JUNCTION    522.52  1145.56     0  02:03        3.81          11       0.050
  YS02001783           JUNCTION      0.00  1145.16     0  02:03           0          11       0.025
  YS02001784           JUNCTION      1.06  1146.27     0  02:03      0.0299          11       0.036
  YS02001786           JUNCTION      0.06  1146.22     0  02:03     0.00159          11       0.034
  YS02001788           JUNCTION      0.07  1146.19     0  02:03       0.002          11       0.019
  YS02001790           JUNCTION      0.15  1156.29     0  02:03     0.00437          11       0.028
  YS02001791           JUNCTION      0.00  1250.30     0  02:00           0          11       0.008
  YS02001793           JUNCTION      0.00  1207.95     0  02:00           0          11       0.003
  WS02004139           JUNCTION      0.32   393.99     0  00:00     0.00905        9.52       0.352
  WSC                  OUTFALL       0.00  1235.87     0  02:02           0        20.6       0.000
  3                    OUTFALL       0.00   634.67     0  01:59           0        9.19       0.000
  4                    OUTFALL       0.00   368.20     0  01:55           0        2.91       0.000
  5                    OUTFALL       0.00     0.00     0  00:00           0           0       0.000 ltr
  JK-storage           STORAGE       0.00  1210.77     0  01:59           0        11.1     -15.741
  CC-storage           STORAGE       0.00  2147.70     0  02:06           0        11.7       0.237
  XR-storage           STORAGE     844.69   844.69     0  03:01        12.1        12.7      -0.001
  
  
  **********************
  Node Surcharge Summary
  **********************
  
  Surcharging occurs when water rises above the top of the highest conduit.
  ---------------------------------------------------------------------
                                               Max. Height   Min. Depth
                                   Hours       Above Crown    Below Rim
  Node                 Type      Surcharged         Meters       Meters
  ---------------------------------------------------------------------
  WS02004401           JUNCTION        0.62          0.134        1.526
  WS02004402           JUNCTION        0.66          0.133        1.607
  WS02004403           JUNCTION        0.67          0.120        1.910
  WS02004404           JUNCTION        1.12          0.171        2.609
  WS02004406           JUNCTION        0.82          0.116        2.334
  WS02004405           JUNCTION        0.89          0.151        2.649
  WS02006109           JUNCTION        5.78          0.487        1.333
  WS02006110           JUNCTION        1.51          0.240        1.610
  WS02006112           JUNCTION        1.66          0.422        1.258
  WS02006115           JUNCTION        0.44          0.083        2.167
  WS02006116           JUNCTION        0.50          0.087        2.203
  WS02006230           JUNCTION        1.13          0.883        0.687
  WS02006231           JUNCTION        1.43          1.153        0.377
  WS02006232           JUNCTION        5.74          0.711        0.769
  WS02006234           JUNCTION        1.84          0.767        0.473
  WS02006235           JUNCTION        5.67          0.835        0.455
  WS02006238           JUNCTION        5.71          0.891        0.539
  WS02006240           JUNCTION        2.22          0.856        0.534
  WS02006242           JUNCTION        5.67          0.820        0.000
  WS02006243           JUNCTION        1.47          0.770        0.000
  WS02006245           JUNCTION        0.80          0.850        0.000
  WS02006247           JUNCTION        0.87          0.760        0.000
  WS02006248           JUNCTION        0.08          0.373        0.007
  WS02006239           JUNCTION        4.26          0.867        0.423
  WS02006252           JUNCTION        5.74          0.193        0.907
  WS02006256           JUNCTION        0.01          1.050        0.000
  WS02006228           JUNCTION        5.77          0.603        1.597
  YS02001748           JUNCTION        5.47          0.524        0.666
  YS02001751           JUNCTION        6.02          1.095        0.105
  YS02001754           JUNCTION        6.04          0.986        0.164
  YS02001762           JUNCTION        6.09          1.041        0.109
  YS02001765           JUNCTION        6.08          0.984        0.116
  YS02001767           JUNCTION        6.07          0.944        0.086
  YS02001770           JUNCTION        6.07          0.920        0.000
  YS02001774           JUNCTION        6.08          1.050        0.000
  YS02001779           JUNCTION        6.04          0.680        0.000
  YS02001882           JUNCTION        1.76          0.651        0.179
  YS02001884           JUNCTION        1.79          0.685        0.185
  YS02001759           JUNCTION        6.09          1.077        0.133
  YS02001887           JUNCTION        1.87          0.762        0.188
  YS02001890           JUNCTION        1.90          0.760        0.000
  YS02001898           JUNCTION        1.71          0.539        0.201
  YS02001901           JUNCTION        1.84          0.681        0.189
  YS02001904           JUNCTION        1.81          0.639        0.211
  YS02001907           JUNCTION        2.26          0.950        0.000
  YS02001910           JUNCTION        1.94          0.790        0.310
  YS02001915           JUNCTION        1.75          0.612        0.388
  YS02001918           JUNCTION        1.51          0.323        0.487
  YS02001619           JUNCTION        6.02          0.610        0.000
  YS02001629           JUNCTION        6.02          0.470        0.000
  YS02001641           JUNCTION        6.08          0.935        0.165
  YS02001644           JUNCTION        6.08          0.920        0.000
  YS02001652           JUNCTION        6.05          1.130        0.000
  YS02001655           JUNCTION        6.02          1.200        0.000
  YS02001920           JUNCTION        1.54          0.394        0.746
  YS02001926           JUNCTION        0.01          0.028        0.872
  YS02001658           JUNCTION        5.60          1.300        0.000
  YS02001661           JUNCTION        0.33          1.390        0.000
  YS02001622           JUNCTION        6.02          0.620        0.000
  YS02001633           JUNCTION        6.08          0.927        0.133
  YS02001649           JUNCTION        6.08          1.050        0.000
  YS02001757           JUNCTION        6.12          1.177        0.033
  YS02001895           JUNCTION        1.73          0.568        0.182
  YS02001625           JUNCTION        6.05          0.780        0.000
  YS02163301           JUNCTION        6.07          0.882        0.148
  YS02163601           JUNCTION        6.09          0.987        0.093
  YS02164001           JUNCTION        6.08          0.917        0.183
  YS02001647           JUNCTION        6.05          0.803        0.097
  YS02006553           JUNCTION        2.31          1.160        0.030
  YS02006561           JUNCTION        1.59          0.951        0.199
  YS02006556           JUNCTION        2.11          1.328        0.022
  YS02006558           JUNCTION        2.08          1.390        0.010
  YS02001783           JUNCTION        2.12          1.477        0.123
  YS02001784           JUNCTION        2.14          1.490        0.000
  YS02001786           JUNCTION        2.05          1.427        0.003
  YS02001788           JUNCTION        1.93          1.480        0.000
  YS02001790           JUNCTION        2.12          1.157        0.000
  YS02001791           JUNCTION        2.16          1.357        0.563
  YS02001793           JUNCTION        2.27          1.050        1.550
  
  
  *********************
  Node Flooding Summary
  *********************
  
  Flooding refers to all water that overflows a node, whether it ponds or not.
  --------------------------------------------------------------------------
                                                             Total   Maximum
                                 Maximum   Time of Max       Flood    Ponded
                        Hours       Rate    Occurrence      Volume     Depth
  Node                 Flooded       LPS   days hr:min    10^6 ltr    Meters
  --------------------------------------------------------------------------
  WS02006242              0.01     83.07      0  01:43       0.000     0.000
  WS02006243              0.01    121.87      0  01:43       0.000     0.000
  WS02006245              0.01     50.19      0  01:43       0.000     0.000
  WS02006247              0.01     49.66      0  01:43       0.000     0.000
  WS02006256              0.01    406.11      0  00:00       0.001     0.000
  YS02001770              0.01      7.42      0  01:47       0.000     0.000
  YS02001774              0.01     13.72      0  01:47       0.000     0.000
  YS02001779              2.93    519.09      0  03:00       2.013     0.000
  YS02001890              0.54     89.18      0  02:15       0.099     0.000
  YS02001907              1.37    586.23      0  02:16       1.907     0.000
  YS02001619              0.01     47.84      0  01:48       0.000     0.000
  YS02001629              0.01    145.94      0  01:48       0.000     0.000
  YS02001644              4.15   1304.99      0  03:00       8.259     0.000
  YS02001652              0.01     20.95      0  02:16       0.000     0.000
  YS02001655              0.01     22.84      0  02:14       0.000     0.000
  YS02001658              0.01     13.01      0  02:25       0.000     0.000
  YS02001661              0.01    164.97      0  02:14       0.001     0.000
  YS02001622              0.01     65.00      0  01:47       0.000     0.000
  YS02001649              0.15     47.32      0  02:19       0.008     0.000
  YS02001625              2.03    326.28      0  02:16       1.450     0.000
  YS02001784              0.01      7.28      0  02:03       0.000     0.000
  YS02001788              0.01    109.34      0  02:03       0.000     0.000
  YS02001790              0.01    131.42      0  02:03       0.000     0.000
  JK-storage              1.93    403.43      0  02:04       2.154     0.000
  XR-storage              3.05    464.68      0  03:01       2.756     0.000
  
  
  **********************
  Storage Volume Summary
  **********************
  
  --------------------------------------------------------------------------------------------------
                         Average     Avg  Evap Exfil       Maximum     Max    Time of Max    Maximum
                          Volume    Pcnt  Pcnt  Pcnt        Volume    Pcnt     Occurrence    Outflow
  Storage Unit           1000 m3    Full  Loss  Loss       1000 m3    Full    days hr:min        LPS
  --------------------------------------------------------------------------------------------------
  JK-storage               0.128      44     0     0         0.291     100       0  02:04     600.00
  CC-storage               3.126      20     0     0         3.819      24       0  03:03     400.00
  XR-storage               0.799      86     0     0         0.926     100       0  02:07     380.00
  
  
  ***********************
  Outfall Loading Summary
  ***********************
  
  -----------------------------------------------------------
                         Flow       Avg       Max       Total
                         Freq      Flow      Flow      Volume
  Outfall Node           Pcnt       LPS       LPS    10^6 ltr
  -----------------------------------------------------------
  WSC                   99.99    842.22   1235.87      20.556
  3                     95.99    436.94    634.67       9.193
  4                     92.07    144.40    368.20       2.913
  5                      0.00      0.00      0.00       0.000
  -----------------------------------------------------------
  System                72.01   1423.55   2224.50      32.662
  
  
  ********************
  Link Flow Summary
  ********************
  
  -----------------------------------------------------------------------------
                                 Maximum  Time of Max   Maximum    Max/    Max/
                                  |Flow|   Occurrence   |Veloc|    Full    Full
  Link                 Type          LPS  days hr:min     m/sec    Flow   Depth
  -----------------------------------------------------------------------------
  WS02003066WSF200     CONDUIT    834.63     0  01:58      2.95    0.14    0.30
  WS02006287WS02006284 CONDUIT    655.86     0  01:55      2.36    0.30    0.38
  WS02006284WS02006280 CONDUIT    656.04     0  01:55      2.59    0.27    0.36
  WS02006280WS02006229 CONDUIT    656.04     0  01:55      4.11    0.14    0.27
  WS02006229WS02006228 CONDUIT    808.88     0  01:54      1.61    2.68    1.00
  WS02006256WS02006235 CONDUIT    177.52     0  00:01      2.73    1.88    1.00
  WS02006253WS02006251 CONDUIT    142.84     0  01:55      0.59    0.43    1.00
  WS02006252WS02006251 CONDUIT    400.35     0  07:08      3.19    1.47    1.00
  WS02006251WS02006249 CONDUIT    542.78     0  01:55      1.41    1.57    1.00
  WS02006249WS02006248 CONDUIT    401.03     0  01:41      1.30    2.20    1.00
  WS02006248WS02006247 CONDUIT    392.43     0  01:42      1.27    0.85    1.00
  WS02006247WS02006245 CONDUIT    385.71     0  01:42      1.23    3.06    1.00
  WS02006245WS02006243 CONDUIT    371.69     0  01:42      1.29    1.10    1.00
  WS02006243WS02006242 CONDUIT    339.95     0  01:42      1.06    0.73    1.00
  WS02006242WS02006240 CONDUIT    313.78     0  01:43      0.86    1.25    1.00
  WS02006240WS02006239 CONDUIT    308.51     0  07:20      0.80    0.97    1.00
  WS02006239WS02006238 CONDUIT    308.55     0  07:21      0.80    0.99    1.00
  WS02006238WS02006235 CONDUIT    308.55     0  07:21      1.32    0.69    1.00
  WS02006235WS02006234 CONDUIT    392.54     0  05:07      1.02    4.14    1.00
  WS02006234WS02006232 CONDUIT    392.55     0  05:07      1.17    0.79    1.00
  WS02006232WS02006231 CONDUIT    392.55     0  05:08      1.06    0.82    1.00
  WS02006231WS02006230 CONDUIT    392.57     0  05:08      1.27    5.95    1.00
  WS02006230WS02006229 CONDUIT    402.88     0  05:08      1.05    8.97    1.00
  WS02006228WS02006109 CONDUIT    808.85     0  01:54      1.61    3.53    1.00
  WS02006116WS02004401 CONDUIT    834.87     0  01:56      1.06    1.15    1.00
  WS02006115WS02006116 CONDUIT    834.87     0  01:56      1.07    1.07    1.00
  WS02006113WS02006111 CONDUIT    809.72     0  01:55      2.69    0.97    0.81
  WS02006112WS02006115 CONDUIT    834.93     0  01:56      1.06    0.49    1.00
  WS02006111WS02006112 CONDUIT    810.18     0  01:56      1.87    0.39    0.90
  WS02006110WS02006113 CONDUIT    809.97     0  01:54      1.71    0.74    0.90
  WS02006109WS02006110 CONDUIT    810.04     0  01:54      1.61    1.56    1.00
  WS02004411WS02004412 CONDUIT    834.54     0  01:57      1.17    1.19    0.86
  WS02004401WS02004402 CONDUIT    834.88     0  01:56      1.06    1.00    1.00
  WS02004413WS02003067 CONDUIT    834.54     0  01:57      1.42    0.36    0.70
  WS02004412WS02004413 CONDUIT    834.53     0  01:57      1.11    0.56    0.92
  WS02004410WS02004411 CONDUIT    834.59     0  01:56      1.15    1.14    0.87
  WS02004409WS02004410 CONDUIT    834.73     0  01:56      1.16    1.08    0.87
  WS02004407WS02004409 CONDUIT    835.07     0  01:56      1.74    0.30    0.62
  WS02004406WS02004407 CONDUIT    835.09     0  01:56      1.45    0.37    0.69
  WS02004405WS02004406 CONDUIT    835.08     0  01:56      1.06    1.65    1.00
  WS02004404WS02004405 CONDUIT    835.04     0  01:56      1.06    8.18    1.00
  WS02004403WS02004404 CONDUIT    834.87     0  01:56      1.06    0.60    1.00
  WS02004402WS02004403 CONDUIT    834.88     0  01:56      1.06    1.20    1.00
  WS02004139WS02001211 CONDUIT    381.79     0  02:28      0.90    0.48    0.63
  WS02004138WS02004139 CONDUIT    393.66     0  00:00      3.65    0.08    0.46
  WS02003067WS02003066 CONDUIT    834.60     0  01:57      1.54    0.27    0.48
  WS02001213WS02003059 CONDUIT    394.08     0  02:27      0.91    0.65    0.85
  WS02001212WS02001213 CONDUIT    392.12     0  02:27      1.32    0.60    0.53
  WS02001211WS02001212 CONDUIT    390.72     0  02:28      0.78    0.30    0.69
  WS02003072WS02003073 CONDUIT   1233.94     0  02:01      1.91    2.67    0.56
  WS02003069WS02003072 CONDUIT   1233.89     0  02:01      1.77    0.59    0.59
  WS02003060WS02003069 CONDUIT   1233.58     0  02:00      1.99    0.48    0.54
  WS02003059WS02003060 CONDUIT    396.42     0  02:26      0.95    0.26    0.74
  HS02004901HS02004770 CONDUIT     31.96     0  01:52      0.09    0.12    0.51
  HS02004876HS02004881 CONDUIT    126.38     0  01:55      1.20    1.34    0.15
  HS02004870HS02004876 CONDUIT    102.10     0  01:55      0.82    0.07    0.18
  HS02004842HS02004848 CONDUIT     15.55     0  02:06      0.07    0.01    0.33
  HS02004837HS02004842 CONDUIT     15.96     0  02:07      0.41    0.01    0.35
  HS02004830HS02004837 CONDUIT     62.46     0  01:55      0.66    0.06    0.14
  HS02004824HS02004830 CONDUIT     62.57     0  01:56      0.62    0.08    0.16
  HS02004817HS02004824 CONDUIT    123.43     0  01:59      0.31    0.06    0.58
  HS02004770HS02004777 CONDUIT    165.77     0  01:51      0.46    0.30    0.52
  HS02004799HS02004480 CONDUIT    414.30     0  01:53      1.02    0.52    0.58
  HS02004792HS02004799 CONDUIT    377.20     0  01:52      1.15    0.23    0.47
  HS02004788HS02004792 CONDUIT    218.44     0  01:53      1.24    0.14    0.25
  HS02004785HS02004788 CONDUIT    165.54     0  01:53      0.86    1.25    0.27
  HS02004777HS02004785 CONDUIT    165.44     0  01:52      0.54    0.20    0.44
  HS02004480HS02004478 CONDUIT    492.13     0  01:53      1.52    2.07    0.46
  HS02004479HS02004480 CONDUIT     78.31     0  01:54      0.27    0.08    0.55
  HS02004862HS02004870 CONDUIT     77.52     0  01:55      0.79    0.08    0.14
  HS02004848HS02004852 CONDUIT     36.10     0  01:55      0.52    0.04    0.10
  HS02004856HS02004862 CONDUIT     54.46     0  01:55      0.59    0.05    0.13
  HS02004852HS02004856 CONDUIT     36.15     0  01:56      0.33    0.04    0.16
  HS02004802HS02004478 CONDUIT    170.22     0  01:58      0.53    0.15    0.47
  HS02004478WS02006287 CONDUIT    655.81     0  01:54      2.08    0.18    0.35
  HS02004817HS02004807 CONDUIT    125.36     0  01:59      0.24    0.07    0.75
  HS02004807HS02004802 CONDUIT    169.24     0  01:58      0.47    0.32    0.53
  YS02001759YS02001757 CONDUIT    880.20     0  02:07      1.12    0.63    1.00
  YS02001762YS02001759 CONDUIT    438.65     0  02:05      0.56    0.51    1.00
  YS02001765YS02001762 CONDUIT    438.66     0  02:05      0.56    0.41    1.00
  YS02001770YS02001767 CONDUIT    438.22     0  02:05      0.56    1.74    1.00
  YS02001774YS02001770 CONDUIT    519.12     0  03:00      0.66    0.33    1.00
  YS02001779YS02001774 CONDUIT    519.09     0  03:00      0.66    0.26    1.00
  YS02001649YS02001757 CONDUIT    943.37     0  02:04      1.20    0.57    1.00
  YS02001767YS02001765 CONDUIT    438.72     0  02:05      0.56    0.55    1.00
  YS02006561YS02001783 CONDUIT   1145.16     0  02:03      2.28    0.59    1.00
  YS02001783YS02001784 CONDUIT   1145.21     0  02:03      2.28    1.58    1.00
  YS02001784YS02001785 CONDUIT   1146.16     0  02:03      2.28    2.67    1.00
  YS02001788YS02001790 CONDUIT   1156.13     0  02:03      2.72    0.85    1.00
  YS02001790YS02001791 CONDUIT   1250.30     0  02:00      3.39    1.36    1.00
  YS02001791YS02001793 CONDUIT   1207.95     0  02:00      6.63    0.52    1.00
  YS02001910YS02001907 CONDUIT    564.92     0  02:00      0.72    0.32    1.00
  YS02001786YS02001788 CONDUIT   1146.12     0  02:03      2.46    2.21    1.00
  YS02001915YS02001910 CONDUIT    565.03     0  02:00      0.72    0.28    1.00
  YS02001918YS02001915 CONDUIT    281.18     0  02:00      0.46    0.16    1.00
  YS02001923YS02001920 CONDUIT    278.23     0  02:00      0.79    0.12    1.00
  YS02001926YS02001923 CONDUIT    288.32     0  02:00      0.87    0.41    0.96
  YS02001929YS02001926 CONDUIT    208.88     0  02:00      0.93    0.10    0.87
  YS02001920YS02001918 CONDUIT    281.12     0  02:00      0.76    0.27    1.00
  YS02001629YS02163301 CONDUIT    222.85     0  01:48      0.28    0.27    1.00
  YS02001619YS02001622 CONDUIT    336.67     0  02:16      0.76    0.50    1.00
  YS02001622YS02001625 CONDUIT    336.60     0  02:16      0.43    0.18    1.00
  YS02001625YS02001629 CONDUIT    195.54     0  01:50      0.31    0.09    1.00
  YS02163301YS02001633 CONDUIT    222.78     0  01:48      0.28    0.21    1.00
  YS02163601YS02164001 CONDUIT    409.20     0  01:48      0.52    0.36    1.00
  YS02164001YS02001641 CONDUIT    408.57     0  01:48      0.52    0.56    1.00
  YS02001641YS02001644 CONDUIT    408.12     0  01:48      0.52    1.32    1.00
  YS02001647YS02001649 CONDUIT    617.78     0  01:50      0.79    0.33    1.00
  YS02006553YS02006556 CONDUIT    701.30     0  01:58      0.89    0.60    1.00
  YS02006556YS02006558 CONDUIT    701.17     0  01:58      0.89    0.55    1.00
  YSB6556YSB1171       CONDUIT     43.98     0  01:54      0.13    0.05    0.82
  YS02001907YS02006553 CONDUIT    701.23     0  01:58      0.78    0.82    1.00
  YS02006558YS02006561 CONDUIT   1145.20     0  02:03      4.05    2.53    1.00
  YS02001633YS02163601 CONDUIT    409.15     0  01:48      0.52    0.43    1.00
  YS02001644YS02001647 CONDUIT    617.43     0  01:50      0.79    0.36    1.00
  YS02001745YS02001748 CONDUIT    396.77     0  02:17      1.73    0.15    0.95
  YS02001748YS02001751 CONDUIT    396.77     0  02:17      1.26    0.20    1.00
  YS02001751YS02001754 CONDUIT    396.66     0  02:17      1.02    0.19    1.00
  YS02001754YS02001757 CONDUIT    396.87     0  02:17      0.51    0.16    1.00
  YS02001882YS02001884 CONDUIT     23.44     0  01:52      0.12    0.03    1.00
  YS02001884YS02001887 CONDUIT     49.56     0  01:52      0.09    0.07    1.00
  YS02001890YS02001895 CONDUIT    524.51     0  01:58      0.67    0.24    1.00
  YS02001895YS02001898 CONDUIT    524.35     0  01:58      0.67    0.91    1.00
  YS02001898YS02001901 CONDUIT    524.90     0  01:58      0.67    0.34    1.00
  YS02001901YS02001904 CONDUIT    525.36     0  01:58      0.67    0.81    1.00
  YS02001904YS02001907 CONDUIT    525.99     0  01:58      0.67    0.18    1.00
  YS02001887YS02001890 CONDUIT    606.14     0  02:15      0.77    1.04    1.00
  YS02001652YS02001649 CONDUIT    485.42     0  02:14      0.62    0.24    1.00
  YS02001655YS02001652 CONDUIT    485.07     0  02:14      1.09    0.24    1.00
  YS02001658YS02001655 CONDUIT    484.87     0  02:14      1.45    0.21    1.00
  YS02001661YS02001658 CONDUIT    508.80     0  02:12      1.85    0.20    1.00
  YS02001664YS02001661 CONDUIT    780.24     0  02:09      1.75    0.24    0.77
  YSB1154YSB6556       CONDUIT     43.64     0  01:53      0.17    0.08    0.72
  YSB1174YSB1171       CONDUIT     35.15     0  01:50      0.10    0.05    0.83
  YSB1171HS02004479    CONDUIT     78.00     0  01:53      0.54    0.05    0.67
  HS02004881HS02006253 CONDUIT    139.58     0  01:55      2.08    0.03    0.41
  YS02001793JiankangQianchi CONDUIT   1210.77     0  01:59     16.37    0.10    1.00
  YS02001757CaochengTiaoxuchi CONDUIT   2147.70     0  02:06      3.81    0.94    1.00
  WSF200WS02003060     CONDUIT    834.76     0  01:58      1.86    0.19    0.42
  1                    CONDUIT   1235.87     0  02:02      3.52    0.43    0.46
  2                    CONDUIT    368.20     0  01:55      6.66    0.88    0.73
  3                    CONDUIT    634.67     0  01:59     10.11    1.01    0.92
  4                    CONDUIT      0.00     0  00:00      0.00    0.00    0.00
  CC-Pump-1            PUMP       200.00     0  01:40              1.00
  CC-Pump-2            PUMP       200.00     0  01:40              1.00
  JK-Pump-1            PUMP       300.00     0  00:00              1.00
  JK-Pump-2            PUMP       300.00     0  00:00              1.00
  XR-Pump-1            PUMP        95.00     0  00:00              1.00
  XR-Pump-2            PUMP        95.00     0  00:00              1.00
  XR-Pump-3            PUMP        95.00     0  00:00              1.00
  XR-Pump-4            PUMP        95.00     0  00:00              1.00
  
  
  ***************************
  Flow Classification Summary
  ***************************
  
  -------------------------------------------------------------------------------------
                      Adjusted    ---------- Fraction of Time in Flow Class ---------- 
                       /Actual         Up    Down  Sub   Sup   Up    Down  Norm  Inlet 
  Conduit               Length    Dry  Dry   Dry   Crit  Crit  Crit  Crit  Ltd   Ctrl  
  -------------------------------------------------------------------------------------
  WS02003066WSF200        1.00   0.05  0.02  0.00  0.00  0.94  0.00  0.00  0.57  0.00
  WS02006287WS02006284    1.00   0.03  0.01  0.00  0.56  0.41  0.00  0.00  0.65  0.00
  WS02006284WS02006280    1.00   0.03  0.00  0.00  0.00  0.00  0.00  0.97  0.00  0.00
  WS02006280WS02006229    1.00   0.03  0.00  0.00  0.00  0.04  0.00  0.93  0.02  0.00
  WS02006229WS02006228    1.00   0.00  0.00  0.00  0.99  0.00  0.00  0.01  0.00  0.00
  WS02006256WS02006235    1.00   0.00  0.00  0.00  1.00  0.00  0.00  0.00  0.00  0.00
  WS02006253WS02006251    1.00   0.02  0.01  0.00  0.97  0.00  0.00  0.00  0.00  0.00
  WS02006252WS02006251    1.00   0.05  0.00  0.00  0.00  0.00  0.95  0.00  0.00  0.00
  WS02006251WS02006249    1.00   0.00  0.00  0.00  1.00  0.00  0.00  0.00  0.21  0.00
  WS02006249WS02006248    1.00   0.00  0.01  0.00  0.95  0.00  0.04  0.00  0.00  0.00
  WS02006248WS02006247    1.00   0.02  0.00  0.00  0.98  0.00  0.00  0.01  0.10  0.00
  WS02006247WS02006245    1.00   0.02  0.00  0.00  0.97  0.00  0.00  0.01  0.00  0.00
  WS02006245WS02006243    1.00   0.01  0.00  0.00  0.96  0.00  0.00  0.03  0.03  0.00
  WS02006243WS02006242    1.00   0.01  0.00  0.00  0.99  0.00  0.00  0.00  0.17  0.00
  WS02006242WS02006240    1.00   0.00  0.00  0.00  0.99  0.00  0.00  0.00  0.00  0.00
  WS02006240WS02006239    1.00   0.00  0.00  0.00  0.97  0.00  0.00  0.02  0.01  0.00
  WS02006239WS02006238    1.00   0.00  0.00  0.00  1.00  0.00  0.00  0.00  0.00  0.00
  WS02006238WS02006235    1.00   0.00  0.00  0.00  1.00  0.00  0.00  0.00  0.00  0.00
  WS02006235WS02006234    1.00   0.00  0.00  0.00  0.97  0.00  0.03  0.00  0.00  0.00
  WS02006234WS02006232    1.00   0.00  0.00  0.00  1.00  0.00  0.00  0.00  0.06  0.00
  WS02006232WS02006231    1.00   0.00  0.00  0.00  0.99  0.00  0.01  0.00  0.00  0.00
  WS02006231WS02006230    1.00   0.00  0.00  0.00  0.95  0.00  0.05  0.00  0.00  0.00
  WS02006230WS02006229    1.00   0.00  0.00  0.00  0.99  0.00  0.00  0.01  0.01  0.00
  WS02006228WS02006109    1.00   0.00  0.00  0.00  1.00  0.00  0.00  0.00  0.00  0.00
  WS02006116WS02004401    1.00   0.02  0.00  0.00  0.98  0.00  0.00  0.00  0.00  0.00
  WS02006115WS02006116    1.00   0.02  0.00  0.00  0.97  0.00  0.00  0.01  0.01  0.00
  WS02006113WS02006111    1.00   0.01  0.00  0.00  0.09  0.90  0.00  0.00  0.09  0.00
  WS02006112WS02006115    1.00   0.01  0.00  0.00  0.98  0.00  0.00  0.00  0.00  0.00
  WS02006111WS02006112    1.00   0.01  0.00  0.00  0.98  0.00  0.00  0.00  0.86  0.00
  WS02006110WS02006113    1.00   0.01  0.00  0.00  0.99  0.00  0.00  0.00  0.00  0.00
  WS02006109WS02006110    1.00   0.00  0.01  0.00  0.99  0.00  0.00  0.00  0.00  0.00
  WS02004411WS02004412    1.00   0.04  0.00  0.00  0.96  0.00  0.00  0.00  0.00  0.00
  WS02004401WS02004402    1.00   0.02  0.00  0.00  0.98  0.00  0.00  0.00  0.00  0.00
  WS02004413WS02003067    1.00   0.04  0.01  0.00  0.00  0.00  0.94  0.00  0.00  0.00
  WS02004412WS02004413    1.00   0.04  0.00  0.00  0.95  0.00  0.00  0.00  0.00  0.00
  WS02004410WS02004411    1.00   0.04  0.00  0.00  0.96  0.00  0.00  0.00  0.00  0.00
  WS02004409WS02004410    1.00   0.04  0.00  0.00  0.96  0.00  0.00  0.00  0.00  0.00
  WS02004407WS02004409    1.00   0.04  0.00  0.00  0.95  0.01  0.00  0.00  0.80  0.00
  WS02004406WS02004407    1.00   0.00  0.04  0.00  0.96  0.00  0.00  0.00  0.00  0.00
  WS02004405WS02004406    1.00   0.00  0.00  0.00  1.00  0.00  0.00  0.00  0.02  0.00
  WS02004404WS02004405    1.00   0.00  0.00  0.00  1.00  0.00  0.00  0.00  0.00  0.00
  WS02004403WS02004404    1.00   0.00  0.02  0.00  0.98  0.00  0.00  0.00  0.02  0.00
  WS02004402WS02004403    1.00   0.02  0.00  0.00  0.98  0.00  0.00  0.00  0.00  0.00
  WS02004139WS02001211    1.00   0.00  0.00  0.00  1.00  0.00  0.00  0.00  0.00  0.00
  WS02004138WS02004139    1.00   0.00  0.00  0.00  0.99  0.01  0.00  0.00  1.00  0.00
  WS02003067WS02003066    1.00   0.06  0.01  0.00  0.94  0.00  0.00  0.00  0.00  0.00
  WS02001213WS02003059    1.00   0.00  0.00  0.00  0.99  0.00  0.00  0.00  0.00  0.00
  WS02001212WS02001213    1.00   0.00  0.00  0.00  0.93  0.00  0.07  0.00  0.00  0.00
  WS02001211WS02001212    1.00   0.00  0.00  0.00  1.00  0.00  0.00  0.00  0.00  0.00
  WS02003072WS02003073    1.00   0.00  0.00  0.00  0.00  0.00  0.00  1.00  0.00  0.00
  WS02003069WS02003072    1.00   0.00  0.00  0.00  0.99  0.01  0.00  0.00  0.12  0.00
  WS02003060WS02003069    1.00   0.00  0.00  0.00  0.97  0.03  0.00  0.00  0.11  0.00
  WS02003059WS02003060    1.00   0.00  0.00  0.00  1.00  0.00  0.00  0.00  0.00  0.00
  HS02004901HS02004770    1.00   0.03  0.00  0.00  0.97  0.00  0.00  0.00  0.00  0.00
  HS02004876HS02004881    1.00   0.01  0.00  0.00  0.83  0.15  0.00  0.00  0.00  0.00
  HS02004870HS02004876    1.00   0.01  0.00  0.00  0.99  0.00  0.00  0.00  0.95  0.00
  HS02004842HS02004848    1.00   0.00  0.03  0.00  0.97  0.00  0.00  0.00  0.57  0.00
  HS02004837HS02004842    1.00   0.00  0.00  0.00  0.99  0.01  0.00  0.00  0.11  0.00
  HS02004830HS02004837    1.00   0.00  0.00  0.00  1.00  0.00  0.00  0.00  0.99  0.00
  HS02004824HS02004830    1.00   0.00  0.00  0.00  1.00  0.00  0.00  0.00  0.03  0.00
  HS02004817HS02004824    1.00   0.00  0.00  0.00  1.00  0.00  0.00  0.00  0.94  0.00
  HS02004770HS02004777    1.00   0.00  0.03  0.00  0.97  0.00  0.00  0.00  0.03  0.00
  HS02004799HS02004480    1.00   0.00  0.01  0.00  0.96  0.00  0.02  0.00  0.00  0.00
  HS02004792HS02004799    1.00   0.00  0.00  0.00  0.99  0.01  0.00  0.00  0.98  0.00
  HS02004788HS02004792    1.00   0.00  0.00  0.00  0.99  0.01  0.00  0.00  0.98  0.00
  HS02004785HS02004788    1.00   0.00  0.00  0.00  1.00  0.00  0.00  0.00  0.00  0.00
  HS02004777HS02004785    1.00   0.00  0.00  0.00  1.00  0.00  0.00  0.00  0.13  0.00
  HS02004480HS02004478    1.00   0.03  0.00  0.00  0.62  0.00  0.00  0.35  0.00  0.00
  HS02004479HS02004480    1.00   0.02  0.00  0.00  0.98  0.00  0.00  0.00  0.12  0.00
  HS02004862HS02004870    1.00   0.00  0.00  0.00  1.00  0.00  0.00  0.00  0.04  0.00
  HS02004848HS02004852    1.00   0.03  0.00  0.00  0.97  0.00  0.00  0.00  0.78  0.00
  HS02004856HS02004862    1.00   0.00  0.04  0.00  0.96  0.00  0.00  0.00  0.82  0.00
  HS02004852HS02004856    1.00   0.03  0.00  0.00  0.97  0.00  0.00  0.00  0.77  0.00
  HS02004802HS02004478    1.00   0.03  0.00  0.00  0.97  0.00  0.00  0.00  0.03  0.00
  HS02004478WS02006287    1.00   0.04  0.00  0.00  0.68  0.28  0.00  0.00  0.62  0.00
  HS02004817HS02004807    1.00   0.00  0.03  0.00  0.97  0.00  0.00  0.00  0.01  0.00
  HS02004807HS02004802    1.00   0.03  0.00  0.00  0.97  0.00  0.00  0.00  0.00  0.00
  YS02001759YS02001757    1.00   0.00  0.00  0.00  1.00  0.00  0.00  0.00  0.16  0.00
  YS02001762YS02001759    1.00   0.00  0.00  0.00  1.00  0.00  0.00  0.00  0.03  0.00
  YS02001765YS02001762    1.00   0.00  0.00  0.00  1.00  0.00  0.00  0.00  0.14  0.00
  YS02001770YS02001767    1.00   0.00  0.00  0.00  1.00  0.00  0.00  0.00  0.00  0.00
  YS02001774YS02001770    1.00   0.00  0.03  0.00  0.97  0.00  0.00  0.00  0.03  0.00
  YS02001779YS02001774    1.00   0.00  0.00  0.00  1.00  0.00  0.00  0.00  0.18  0.00
  YS02001649YS02001757    1.00   0.00  0.00  0.00  1.00  0.00  0.00  0.00  0.16  0.00
  YS02001767YS02001765    1.00   0.00  0.00  0.00  1.00  0.00  0.00  0.00  0.00  0.00
  YS02006561YS02001783    1.00   0.04  0.00  0.00  0.40  0.56  0.00  0.00  0.43  0.00
  YS02001783YS02001784    1.00   0.00  0.04  0.00  0.96  0.00  0.00  0.00  0.00  0.00
  YS02001784YS02001785    1.00   0.00  0.00  0.00  1.00  0.00  0.00  0.00  0.17  0.00
  YS02001788YS02001790    1.00   0.00  0.00  0.00  0.42  0.58  0.00  0.00  0.43  0.00
  YS02001790YS02001791    1.00   0.00  0.00  0.00  0.39  0.61  0.00  0.00  0.48  0.00
  YS02001791YS02001793    1.00   0.00  0.00  0.00  0.40  0.60  0.00  0.00  0.01  0.00
  YS02001910YS02001907    1.00   0.00  0.00  0.00  0.98  0.00  0.00  0.01  0.12  0.00
  YS02001786YS02001788    1.00   0.00  0.00  0.00  0.43  0.57  0.00  0.00  0.00  0.00
  YS02001915YS02001910    1.00   0.00  0.00  0.00  0.99  0.01  0.00  0.00  0.16  0.00
  YS02001918YS02001915    1.00   0.00  0.01  0.00  0.99  0.00  0.00  0.00  0.52  0.00
  YS02001923YS02001920    1.00   0.00  0.00  0.00  1.00  0.00  0.00  0.00  0.74  0.00
  YS02001926YS02001923    1.00   0.00  0.02  0.00  0.31  0.00  0.67  0.00  0.00  0.00
  YS02001929YS02001926    1.00   0.00  0.03  0.00  0.97  0.00  0.00  0.00  0.66  0.00
  YS02001920YS02001918    1.00   0.00  0.01  0.00  0.99  0.00  0.00  0.00  0.00  0.00
  YS02001629YS02163301    1.00   0.03  0.00  0.00  0.96  0.00  0.00  0.00  0.00  0.00
  YS02001619YS02001622    1.00   0.03  0.00  0.00  0.97  0.00  0.00  0.00  0.00  0.00
  YS02001622YS02001625    1.00   0.03  0.00  0.00  0.97  0.00  0.00  0.00  0.05  0.00
  YS02001625YS02001629    1.00   0.03  0.01  0.00  0.95  0.00  0.01  0.00  0.00  0.00
  YS02163301YS02001633    1.00   0.00  0.03  0.00  0.97  0.00  0.00  0.00  0.00  0.00
  YS02163601YS02164001    1.00   0.00  0.02  0.00  0.98  0.00  0.00  0.00  0.00  0.00
  YS02164001YS02001641    1.00   0.01  0.01  0.00  0.98  0.00  0.00  0.00  0.06  0.00
  YS02001641YS02001644    1.00   0.00  0.01  0.00  0.99  0.00  0.00  0.00  0.00  0.00
  YS02001647YS02001649    1.00   0.00  0.04  0.00  0.96  0.00  0.00  0.00  0.01  0.00
  YS02006553YS02006556    1.00   0.01  0.00  0.00  0.99  0.00  0.00  0.00  0.03  0.00
  YS02006556YS02006558    1.00   0.00  0.00  0.00  1.00  0.00  0.00  0.00  0.00  0.00
  YSB6556YSB1171          1.00   0.02  0.01  0.00  0.97  0.00  0.00  0.00  0.00  0.00
  YS02001907YS02006553    1.00   0.00  0.01  0.00  0.98  0.00  0.00  0.00  0.00  0.00
  YS02006558YS02006561    1.00   0.04  0.00  0.00  0.33  0.63  0.00  0.00  0.41  0.00
  YS02001633YS02163601    1.00   0.00  0.01  0.00  0.99  0.00  0.00  0.00  0.15  0.00
  YS02001644YS02001647    1.00   0.00  0.04  0.00  0.96  0.00  0.00  0.00  0.00  0.00
  YS02001745YS02001748    1.00   0.00  0.00  0.00  0.93  0.00  0.00  0.07  0.01  0.00
  YS02001748YS02001751    1.00   0.00  0.00  0.00  0.98  0.02  0.00  0.00  0.14  0.00
  YS02001751YS02001754    1.00   0.00  0.00  0.00  0.96  0.00  0.00  0.04  0.01  0.00
  YS02001754YS02001757    1.00   0.00  0.00  0.00  0.99  0.01  0.00  0.00  0.18  0.00
  YS02001882YS02001884    1.00   0.03  0.00  0.00  0.96  0.00  0.00  0.00  0.00  0.00
  YS02001884YS02001887    1.00   0.02  0.01  0.00  0.97  0.00  0.00  0.00  0.00  0.00
  YS02001890YS02001895    1.00   0.00  0.03  0.00  0.96  0.00  0.00  0.00  0.00  0.00
  YS02001895YS02001898    1.00   0.04  0.00  0.00  0.96  0.00  0.00  0.00  0.00  0.00
  YS02001898YS02001901    1.00   0.04  0.00  0.00  0.96  0.00  0.00  0.00  0.01  0.00
  YS02001901YS02001904    1.00   0.04  0.00  0.00  0.96  0.00  0.00  0.00  0.00  0.00
  YS02001904YS02001907    1.00   0.00  0.03  0.00  0.96  0.00  0.00  0.00  0.00  0.00
  YS02001887YS02001890    1.00   0.00  0.00  0.00  0.98  0.00  0.01  0.00  0.00  0.00
  YS02001652YS02001649    1.00   0.00  0.00  0.00  1.00  0.00  0.00  0.00  0.16  0.00
  YS02001655YS02001652    1.00   0.00  0.00  0.00  0.96  0.00  0.00  0.04  0.01  0.00
  YS02001658YS02001655    1.00   0.00  0.03  0.00  0.95  0.02  0.00  0.00  0.02  0.00
  YS02001661YS02001658    1.00   0.03  0.00  0.00  0.93  0.04  0.00  0.00  0.00  0.00
  YS02001664YS02001661    1.00   0.03  0.00  0.00  0.93  0.04  0.00  0.00  0.10  0.00
  YSB1154YSB6556          1.00   0.03  0.00  0.00  0.97  0.00  0.00  0.00  0.02  0.00
  YSB1174YSB1171          1.00   0.02  0.01  0.00  0.97  0.00  0.00  0.00  0.00  0.00
  YSB1171HS02004479       1.00   0.02  0.00  0.00  0.98  0.00  0.00  0.00  0.11  0.00
  HS02004881HS02006253    1.00   0.02  0.00  0.00  0.93  0.00  0.00  0.05  0.74  0.00
  YS02001793JiankangQianchi    1.00   0.00  0.00  0.00  0.49  0.51  0.00  0.00  0.07  0.00
  YS02001757CaochengTiaoxuchi    1.00   0.00  0.05  0.00  0.89  0.06  0.00  0.00  0.00  0.00
  WSF200WS02003060        1.00   0.00  0.05  0.00  0.95  0.00  0.00  0.00  0.15  0.00
  1                       1.00   0.00  0.00  0.00  0.00  1.00  0.00  0.00  0.53  0.00
  2                       1.00   0.08  0.00  0.00  0.00  0.92  0.00  0.00  0.01  0.00
  3                       1.00   0.04  0.00  0.00  0.00  0.96  0.00  0.00  0.01  0.00
  4                       1.00   1.00  0.00  0.00  0.00  0.00  0.00  0.00  0.00  0.00
  
  
  *************************
  Conduit Surcharge Summary
  *************************
  
  ----------------------------------------------------------------------------
                                                           Hours        Hours 
                         --------- Hours Full --------   Above Full   Capacity
  Conduit                Both Ends  Upstream  Dnstream   Normal Flow   Limited
  ----------------------------------------------------------------------------
  WS02006229WS02006228        5.76      5.79      5.76      5.92         5.76
  WS02006256WS02006235        6.27      6.27      7.21      1.44         0.01
  WS02006253WS02006251        0.69      0.69      1.35      0.01         0.01
  WS02006252WS02006251        5.69      5.69      5.74      5.72         0.01
  WS02006251WS02006249        0.33      0.75      0.33      5.69         0.33
  WS02006249WS02006248        0.08      0.08      0.33      5.62         0.01
  WS02006248WS02006247        0.36      0.36      0.87      0.01         0.01
  WS02006247WS02006245        0.80      1.36      0.80      5.82         0.79
  WS02006245WS02006243        0.96      0.96      1.47      0.03         0.01
  WS02006243WS02006242        1.55      1.55      5.67      0.01         0.01
  WS02006242WS02006240        2.22      2.22      5.70      4.90         0.01
  WS02006240WS02006239        3.81      3.81      4.25      0.01         0.01
  WS02006239WS02006238        5.69      5.69      5.71      0.01         0.01
  WS02006238WS02006235        5.69      5.69      5.73      0.01         0.01
  WS02006235WS02006234        1.84      1.84      5.67      6.29         0.03
  WS02006234WS02006232        3.70      3.70      5.74      0.01         0.01
  WS02006232WS02006231        1.43      1.43      5.74      0.01         0.01
  WS02006231WS02006230        1.12      1.12      1.46      6.26         0.01
  WS02006230WS02006229        5.86      5.89      5.86      6.32         5.86
  WS02006228WS02006109        5.78      5.83      5.78      6.00         5.78
  WS02006116WS02004401        0.61      0.61      0.62      0.56         0.55
  WS02006115WS02006116        0.49      0.49      0.50      0.37         0.36
  WS02006112WS02006115        0.44      0.44      1.66      0.01         0.01
  WS02006111WS02006112        0.01      0.01      5.94      0.01         0.01
  WS02006110WS02006113        0.01      0.01      5.81      0.01         0.01
  WS02006109WS02006110        1.51      1.51      5.83      1.51         0.01
  WS02004411WS02004412        0.01      0.01      0.01      0.59         0.01
  WS02004401WS02004402        0.62      0.62      0.66      0.06         0.08
  WS02004410WS02004411        0.01      0.01      0.01      0.54         0.01
  WS02004409WS02004410        0.01      0.01      0.01      0.39         0.01
  WS02004406WS02004407        0.01      0.01      0.82      0.01         0.01
  WS02004405WS02004406        0.82      0.89      0.82      1.59         0.81
  WS02004404WS02004405        0.89      1.12      0.89      6.24         0.89
  WS02004403WS02004404        0.67      0.67      1.12      0.01         0.01
  WS02004402WS02004403        0.66      0.66      0.67      0.61         0.59
  WS02003072WS02003073        0.01      0.01      0.01      6.03         0.01
  HS02004876HS02004881        0.01      0.01      0.01      0.49         0.01
  HS02004785HS02004788        0.01      0.01      0.01      0.35         0.01
  HS02004480HS02004478        0.01      0.01      0.01      0.79         0.01
  YS02001759YS02001757        6.09      6.09      6.12      0.01         0.01
  YS02001762YS02001759        6.09      6.09      6.09      0.01         0.01
  YS02001765YS02001762        6.08      6.08      6.09      0.01         0.01
  YS02001770YS02001767        6.07      6.07      6.07      0.51         1.09
  YS02001774YS02001770        6.07      6.07      6.08      0.01         0.01
  YS02001779YS02001774        6.04      6.04      6.08      0.01         0.01
  YS02001649YS02001757        6.08      6.08      6.12      0.01         0.01
  YS02001767YS02001765        6.07      6.07      6.08      0.01         0.01
  YS02006561YS02001783        1.59      1.59      2.12      0.01         0.01
  YS02001783YS02001784        2.11      2.12      2.14      2.02         1.91
  YS02001784YS02001785        2.05      2.14      2.05      2.73         2.04
  YS02001788YS02001790        1.93      1.93      2.12      0.01         0.01
  YS02001790YS02001791        2.12      2.12      2.16      1.53         1.36
  YS02001791YS02001793        2.16      2.16      2.31      0.01         0.01
  YS02001910YS02001907        1.94      1.94      2.26      0.01         0.01
  YS02001786YS02001788        1.93      2.05      1.93      2.45         1.93
  YS02001915YS02001910        1.75      1.75      1.94      0.01         0.01
  YS02001918YS02001915        1.51      1.51      1.75      0.01         0.01
  YS02001923YS02001920        1.34      1.34      1.54      0.01         0.01
  YS02001926YS02001923        0.01      0.01      0.01      0.01         0.01
  YS02001929YS02001926        0.01      0.01      0.01      0.01         0.01
  YS02001920YS02001918        1.51      1.51      1.54      0.01         0.01
  YS02001629YS02163301        6.06      6.06      6.07      0.01         0.01
  YS02001619YS02001622        6.02      6.02      6.02      0.01         0.01
  YS02001622YS02001625        6.02      6.02      6.05      0.01         0.01
  YS02001625YS02001629        6.02      6.02      6.05      0.01         0.01
  YS02163301YS02001633        6.07      6.07      6.08      0.01         0.01
  YS02163601YS02164001        6.08      6.08      6.09      0.01         0.01
  YS02164001YS02001641        6.08      6.08      6.08      0.01         0.02
  YS02001641YS02001644        6.08      6.08      6.08      2.21         2.15
  YS02001647YS02001649        6.05      6.05      6.08      0.01         0.01
  YS02006553YS02006556        2.11      2.11      2.30      0.01         0.01
  YS02006556YS02006558        2.18      2.18      2.36      0.01         0.01
  YSB6556YSB1171              0.01      0.01      0.14      0.01         0.01
  YS02001907YS02006553        2.75      2.75      2.95      0.01         0.01
  YS02006558YS02006561        1.78      2.08      1.78      2.63         1.78
  YS02001633YS02163601        6.08      6.08      6.09      0.01         0.01
  YS02001644YS02001647        6.05      6.05      6.08      0.01         0.01
  YS02001745YS02001748        0.01      0.01      5.47      0.01         0.01
  YS02001748YS02001751        6.00      6.00      6.02      0.01         0.01
  YS02001751YS02001754        6.02      6.02      6.04      0.01         0.01
  YS02001754YS02001757        6.05      6.05      6.12      0.01         0.01
  YS02001882YS02001884        1.76      1.76      1.79      0.01         0.01
  YS02001884YS02001887        1.84      1.84      1.87      0.01         0.01
  YS02001890YS02001895        1.73      1.73      1.96      0.01         0.01
  YS02001895YS02001898        1.71      1.71      1.73      0.01         0.01
  YS02001898YS02001901        1.74      1.74      1.84      0.01         0.01
  YS02001901YS02001904        1.81      1.81      1.84      0.01         0.01
  YS02001904YS02001907        1.81      1.81      2.32      0.01         0.01
  YS02001887YS02001890        1.90      1.90      1.93      0.20         0.01
  YS02001652YS02001649        6.06      6.06      6.08      0.01         0.01
  YS02001655YS02001652        6.02      6.02      6.05      0.01         0.01
  YS02001658YS02001655        5.59      5.59      6.02      0.01         0.01
  YS02001661YS02001658        0.31      0.31      5.60      0.01         0.02
  YS02001664YS02001661        0.01      0.01      1.37      0.01         0.01
  YS02001793JiankangQianchi        2.27      2.27      2.86      0.01         0.01
  YS02001757CaochengTiaoxuchi        5.51      5.51      6.12      0.01         0.01
  3                           0.01      0.01      0.11      0.11         0.01
  
  
  ***************
  Pumping Summary
  ***************
  
  ---------------------------------------------------------------------------------------------------------
                                                  Min       Avg       Max     Total     Power    % Time Off
                        Percent   Number of      Flow      Flow      Flow    Volume     Usage    Pump Curve
  Pump                 Utilized   Start-Ups       LPS       LPS       LPS  10^6 ltr     Kw-hr    Low   High
  ---------------------------------------------------------------------------------------------------------
  CC-Pump-1               75.02           1      0.00    196.91    200.00     4.149      7.14    0.0    5.9
  CC-Pump-2               75.02           1      0.00    196.91    200.00     4.149      7.14    0.0    5.9
  JK-Pump-1               91.49           2      0.00    252.43    300.00     5.600     67.47    0.0    0.0
  JK-Pump-2               95.74           1      0.00    250.49    300.00     5.459     64.75    0.0    0.0
  XR-Pump-1               95.74           1      0.00     93.28     95.00     2.480     23.38    0.0    0.0
  XR-Pump-2               91.49           2      0.00     94.37     95.00     2.394     21.23    0.0    0.0
  XR-Pump-3               91.49           2      0.00     94.37     95.00     2.394     21.23    0.0    0.0
  XR-Pump-4               87.23           2      0.00     93.37     95.00     2.252     18.83    0.0    0.0
  

  Analysis begun on:  Sun Jan  2 22:12:01 2022
  Analysis ended on:  Sun Jan  2 22:12:06 2022
  Total elapsed time: 00:00:05