
  EPA STORM WATER MANAGEMENT MODEL - VERSION 5.1 (Build 5.3.0.dev0)
  --------------------------------------------------------------

  WARNING 04: minimum elevation drop used for Conduit WS02004404WS02004405
  WARNING 03: negative offset ignored for Link YS02001904YS02001907
  
  *********************************************************
  NOTE: The summary statistics displayed in this report are
  based on results found at every computational time step,  
  not just on results from each reporting time step.
  *********************************************************
  
  ****************
  Analysis Options
  ****************
  Flow Units ............... LPS
  Process Models:
    Rainfall/Runoff ........ YES
    RDII ................... NO
    Snowmelt ............... NO
    Groundwater ............ NO
    Flow Routing ........... YES
    Ponding Allowed ........ NO
    Water Quality .......... NO
  Infiltration Method ...... HORTON
  Flow Routing Method ...... DYNWAVE
  Surcharge Method ......... EXTRAN
  Starting Date ............ 08/28/2015 08:00:00
  Ending Date .............. 08/28/2015 15:50:00
  Antecedent Dry Days ...... 8.0
  Report Time Step ......... 00:01:00
  Wet Time Step ............ 00:01:00
  Dry Time Step ............ 00:01:00
  Routing Time Step ........ 5.00 sec
  Variable Time Step ....... YES
  Maximum Trials ........... 8
  Number of Threads ........ 4
  Head Tolerance ........... 0.001500 m
  
  
  **************************        Volume         Depth
  Runoff Quantity Continuity     hectare-m            mm
  **************************     ---------       -------
  Total Precipitation ......         5.151        11.277
  Evaporation Loss .........         0.000         0.000
  Infiltration Loss ........         1.323         2.897
  Surface Runoff ...........         2.817         6.167
  Final Storage ............         1.011         2.215
  Continuity Error (%) .....        -0.015
  
  
  **************************        Volume        Volume
  Flow Routing Continuity        hectare-m      10^6 ltr
  **************************     ---------     ---------
  Dry Weather Inflow .......         0.616         6.165
  Wet Weather Inflow .......         2.816        28.157
  Groundwater Inflow .......         0.000         0.000
  RDII Inflow ..............         0.000         0.000
  External Inflow ..........         0.102         1.024
  External Outflow .........         0.918         9.182
  Flooding Loss ............         2.058        20.582
  Evaporation Loss .........         0.000         0.000
  Exfiltration Loss ........         0.000         0.000
  Initial Stored Volume ....         0.076         0.761
  Final Stored Volume ......         0.638         6.380
  Continuity Error (%) .....        -0.107
  
  
  *************************
  Highest Continuity Errors
  *************************
  Node HS02004842 (17.04%)
  Node YS02001884 (11.40%)
  Node YSB1171 (3.39%)
  Node HS02004817 (3.15%)
  Node HS02004901 (2.52%)
  
  
  ***************************
  Time-Step Critical Elements
  ***************************
  Link WS02006252WS02006251 (48.23%)
  Link 3 (32.37%)
  Link WS02006280WS02006229 (4.59%)
  Link WS02006238WS02006235 (3.59%)
  Link YS02006556YS02006558 (2.78%)
  
  
  ********************************
  Highest Flow Instability Indexes
  ********************************
  Link WS02006113WS02006111 (41)
  Link YS02163601YS02164001 (35)
  Link YS02163301YS02001633 (35)
  Link YS02001629YS02163301 (34)
  Link YS02001619YS02001622 (33)
  
  
  *************************
  Routing Time Step Summary
  *************************
  Minimum Time Step           :     0.18 sec
  Average Time Step           :     1.17 sec
  Maximum Time Step           :     5.00 sec
  Percent in Steady State     :    -0.00
  Average Iterations per Step :     4.14
  Percent Not Converging      :    19.65
  
  
  ***************************
  Subcatchment Runoff Summary
  ***************************
  
  ------------------------------------------------------------------------------------------------------------------------------
                            Total      Total      Total      Total     Imperv       Perv      Total       Total     Peak  Runoff
                           Precip      Runon       Evap      Infil     Runoff     Runoff     Runoff      Runoff   Runoff   Coeff
  Subcatchment                 mm         mm         mm         mm         mm         mm         mm    10^6 ltr      LPS
  ------------------------------------------------------------------------------------------------------------------------------
  sub0                      11.28       0.00       0.00       0.79       9.22       0.00       9.22        0.01     1.44   0.818
  sub1                      11.28       0.00       0.00       1.24       8.78       0.00       8.78        0.06    10.11   0.778
  sub2                      11.28       0.00       0.00       4.17       6.20       0.00       6.20        0.06     9.79   0.549
  sub3                      11.28       0.00       0.00       4.17       6.16       0.00       6.16        0.14    22.44   0.546
  sub4                      11.28       0.00       0.00       1.24       8.63       0.00       8.63        0.18    27.35   0.765
  sub5                      11.28       0.00       0.00       0.79       9.17       0.00       9.17        0.10    18.00   0.813
  sub7                      11.28       0.00       0.00       1.01       9.01       0.00       9.01        0.03     5.34   0.799
  sub8                      11.28       0.00       0.00       1.01       9.00       0.00       9.00        0.06    10.08   0.798
  sub9                      11.28       0.00       0.00       1.01       8.99       0.00       8.99        0.04     7.58   0.798
  sub10                     11.28       0.00       0.00       0.90       9.08       0.00       9.08        0.10    17.43   0.805
  sub11                     11.28       0.00       0.00       0.90       9.10       0.00       9.10        0.11    18.56   0.807
  sub12                     11.28       0.00       0.00       1.47       8.62       0.00       8.62        0.08    13.79   0.765
  sub14                     11.28       0.00       0.00       1.01       8.99       0.00       8.99        0.09    14.98   0.797
  sub15                     11.28       0.00       0.00       3.38       6.91       0.00       6.91        0.12    20.76   0.613
  sub16                     11.28       0.00       0.00       3.72       6.64       0.00       6.64        0.07    12.34   0.589
  sub17                     11.28       0.00       0.00       3.61       6.73       0.00       6.73        0.06    10.18   0.597
  sub22                     11.28       0.00       0.00       4.85       5.64       0.00       5.64        0.36    62.58   0.500
  sub23                     11.28       0.00       0.00       4.17       6.23       0.00       6.23        0.30    52.29   0.553
  sub60                     11.28       0.00       0.00       1.35       7.08       0.00       7.08        2.14   214.31   0.627
  sub61                     11.28       0.00       0.00       1.92       7.22       0.00       7.22        2.23   246.69   0.640
  sub62                     11.28       0.00       0.00       0.90       7.84       0.00       7.84        2.41   259.66   0.695
  sub63                     11.28       0.00       0.00       3.27       6.33       0.00       6.33        1.92   219.77   0.561
  sub64                     11.28       0.00       0.00       1.69       6.79       0.00       6.79        2.06   204.52   0.602
  sub65                     11.28       0.00       0.00       1.47       6.90       0.00       6.90        2.12   208.50   0.612
  sub66                     11.28       0.00       0.00       3.27       5.83       0.00       5.83        1.79   183.42   0.517
  sub67                     11.28       0.00       0.00       0.90       8.30       0.00       8.30        2.56   301.39   0.736
  sub68                     11.28       0.00       0.00       1.58       7.60       0.00       7.60        2.34   264.96   0.674
  sub69                     11.28       0.00       0.00       1.69       7.90       0.00       7.90        1.85   237.25   0.701
  sub70                     11.28       8.07       0.00       6.54      10.49       0.03      10.52        2.41   252.63   0.544
  sub71                     11.28       0.00       0.00       0.90       7.63       0.00       7.63        1.80   186.96   0.676
  sub72                     11.28       0.00       0.00       0.79       6.02       0.00       6.02        1.23   100.40   0.534
  sub73                     11.28      10.24       0.00       7.30      11.40       0.02      11.42        2.68   238.40   0.531
  sub74                     11.28       0.00       0.00       8.46       2.36       0.00       2.36        0.94   126.51   0.209
  
  
  ******************
  Node Depth Summary
  ******************
  
  ---------------------------------------------------------------------------------
                                 Average  Maximum  Maximum  Time of Max    Reported
                                   Depth    Depth      HGL   Occurrence   Max Depth
  Node                 Type       Meters   Meters   Meters  days hr:min      Meters
  ---------------------------------------------------------------------------------
  WS02001211           JUNCTION     0.49     0.64     5.48     0  02:25        0.64
  WS02001212           JUNCTION     0.25     0.38     5.45     0  02:25        0.38
  WS02001213           JUNCTION     0.47     0.65     5.42     0  02:24        0.65
  WS02003069           JUNCTION     0.31     0.51     5.10     0  02:23        0.51
  WS02003072           JUNCTION     0.38     0.58     4.95     0  02:24        0.58
  WS02003073           JUNCTION     0.22     0.35     4.42     0  02:25        0.35
  WS02003060           JUNCTION     0.28     0.46     5.39     0  02:23        0.46
  WS02003066           JUNCTION     0.19     0.31     5.86     0  02:13        0.31
  WS02003059           JUNCTION     0.54     0.72     5.41     0  02:23        0.72
  WS02003067           JUNCTION     0.50     0.72     6.04     0  02:13        0.72
  WS02004401           JUNCTION     0.58     0.90     6.90     0  02:11        0.90
  WS02004402           JUNCTION     0.61     0.92     6.88     0  02:11        0.92
  WS02004403           JUNCTION     0.64     0.93     6.86     0  02:11        0.93
  WS02004404           JUNCTION     0.71     1.00     6.85     0  02:11        1.00
  WS02004406           JUNCTION     0.72     0.99     6.82     0  02:11        0.99
  WS02004409           JUNCTION     0.39     0.71     6.48     0  02:13        0.71
  WS02004410           JUNCTION     0.41     0.72     6.44     0  02:13        0.72
  WS02004411           JUNCTION     0.43     0.72     6.40     0  02:12        0.72
  WS02004412           JUNCTION     0.45     0.73     6.37     0  02:13        0.73
  WS02004413           JUNCTION     0.61     0.88     6.35     0  02:13        0.88
  WS02004405           JUNCTION     0.71     0.99     6.84     0  02:11        0.99
  WS02006109           JUNCTION     0.66     1.02     7.64     0  02:10        1.02
  WS02006110           JUNCTION     0.66     0.96     7.54     0  02:10        0.96
  WS02006111           JUNCTION     0.18     0.30     7.01     0  02:09        0.30
  WS02006112           JUNCTION     0.74     1.19     7.07     0  02:12        1.11
  WS02006113           JUNCTION     0.28     0.48     7.37     0  02:10        0.48
  WS02006115           JUNCTION     0.47     0.80     6.94     0  02:11        0.80
  WS02006116           JUNCTION     0.55     0.88     6.92     0  02:10        0.88
  WS02006230           JUNCTION     0.60     1.07     7.81     0  02:09        1.07
  WS02006231           JUNCTION     0.37     0.73     7.85     0  02:09        0.73
  WS02006232           JUNCTION     0.49     0.85     7.89     0  02:09        0.85
  WS02006234           JUNCTION     0.39     0.78     7.93     0  02:09        0.78
  WS02006235           JUNCTION     0.42     0.80     7.96     0  02:09        0.80
  WS02006238           JUNCTION     0.45     0.82     7.97     0  02:09        0.82
  WS02006240           JUNCTION     0.34     0.72     8.02     0  02:09        0.72
  WS02006242           JUNCTION     0.40     0.78     8.05     0  02:09        0.78
  WS02006243           JUNCTION     0.28     0.65     8.07     0  02:10        0.65
  WS02006245           JUNCTION     0.27     0.61     8.09     0  02:10        0.61
  WS02006247           JUNCTION     0.29     0.61     8.11     0  02:10        0.61
  WS02006248           JUNCTION     0.24     0.54     8.13     0  04:11        0.54
  WS02006249           JUNCTION     0.28     0.57     8.17     0  04:10        0.57
  WS02006239           JUNCTION     0.40     0.78     7.99     0  02:09        0.78
  WS02006251           JUNCTION     0.26     0.60     8.27     0  04:10        0.59
  WS02006252           JUNCTION     0.22     0.59     8.83     0  04:09        0.59
  WS02006253           JUNCTION     0.29     0.63     8.27     0  04:10        0.62
  WS02006256           JUNCTION     0.84     1.13     8.06     0  02:09        1.13
  WS02004138           JUNCTION     0.08     0.14     7.39     0  00:20        0.14
  WS02004407           JUNCTION     0.18     0.31     6.62     0  02:11        0.31
  WS02006228           JUNCTION     0.65     1.08     7.73     0  02:11        1.07
  WS02006229           JUNCTION     0.62     1.07     7.77     0  02:09        1.07
  WS02006280           JUNCTION     0.07     0.16     8.44     0  02:09        0.16
  WS02006284           JUNCTION     0.37     0.51     8.91     0  02:09        0.51
  WS02006287           JUNCTION     0.10     0.24     9.20     0  02:09        0.24
  WSF200               JUNCTION     0.17     0.31     5.55     0  02:19        0.31
  HS02004901           JUNCTION     0.13     0.25    10.07     0  02:07        0.25
  HS02004881           JUNCTION     0.01     0.03     9.06     0  02:08        0.03
  HS02004876           JUNCTION     0.05     0.11     9.14     0  02:05        0.11
  HS02004870           JUNCTION     0.02     0.05     9.34     0  02:09        0.05
  HS02004862           JUNCTION     0.02     0.06     9.44     0  02:09        0.06
  HS02004856           JUNCTION     0.08     0.11     9.54     0  02:09        0.11
  HS02004852           JUNCTION     0.01     0.04     9.55     0  02:09        0.04
  HS02004848           JUNCTION     0.01     0.04     9.64     0  02:09        0.04
  HS02004842           JUNCTION     0.33     0.37     9.64     0  02:09        0.37
  HS02004837           JUNCTION     0.03     0.06     9.64     0  02:09        0.06
  HS02004830           JUNCTION     0.04     0.07     9.54     0  02:09        0.07
  HS02004824           JUNCTION     0.02     0.05     9.45     0  02:10        0.05
  HS02004817           JUNCTION     0.44     0.56     9.40     0  02:09        0.56
  HS02004807           JUNCTION     0.13     0.23     9.40     0  02:09        0.23
  HS02004802           JUNCTION     0.16     0.26     9.39     0  02:09        0.26
  HS02004799           JUNCTION     0.13     0.28     9.49     0  02:07        0.28
  HS02004792           JUNCTION     0.04     0.11     9.63     0  02:07        0.11
  HS02004788           JUNCTION     0.03     0.08     9.98     0  02:08        0.08
  HS02004785           JUNCTION     0.05     0.15    10.05     0  02:08        0.15
  HS02004777           JUNCTION     0.15     0.27    10.06     0  02:07        0.27
  HS02004770           JUNCTION     0.12     0.24    10.07     0  02:07        0.24
  HS02004480           JUNCTION     0.09     0.22     9.46     0  02:07        0.22
  HS02004479           JUNCTION     0.12     0.26     9.46     0  02:08        0.26
  HS02004478           JUNCTION     0.07     0.15     9.38     0  02:08        0.15
  YS02001745           JUNCTION     0.68     0.89     8.41     0  03:05        0.89
  YS02001748           JUNCTION     1.06     1.34     8.42     0  03:05        1.33
  YS02001751           JUNCTION     1.24     1.69     8.57     0  02:20        1.53
  YS02001754           JUNCTION     1.49     1.82     8.43     0  03:09        1.81
  YS02001762           JUNCTION     1.69     2.03     8.43     0  03:09        2.02
  YS02001765           JUNCTION     1.64     1.98     8.43     0  03:07        1.96
  YS02001767           JUNCTION     1.60     1.93     8.42     0  03:11        1.91
  YS02001770           JUNCTION     1.60     1.92     8.42     0  02:27        1.90
  YS02001774           JUNCTION     1.67     1.98     8.40     0  02:27        1.96
  YS02001779           JUNCTION     1.42     1.68     8.37     0  02:27        1.68
  YS02001882           JUNCTION     0.47     1.18     7.90     0  02:57        1.18
  YS02001884           JUNCTION     0.56     1.29     7.90     0  02:57        1.27
  YS02001759           JUNCTION     1.72     2.07     8.43     0  02:50        2.06
  YS02001887           JUNCTION     0.64     1.37     7.91     0  02:57        1.36
  YS02001890           JUNCTION     0.67     1.39     7.90     0  02:58        1.39
  YS02001898           JUNCTION     0.44     1.15     7.88     0  02:58        1.15
  YS02001901           JUNCTION     0.55     1.28     7.88     0  02:57        1.27
  YS02001904           JUNCTION     0.53     1.24     7.87     0  02:57        1.24
  YS02001907           JUNCTION     0.86     1.59     7.87     0  02:57        1.58
  YS02001910           JUNCTION     0.65     1.38     7.88     0  02:58        1.37
  YS02001915           JUNCTION     0.45     1.16     7.88     0  02:57        1.16
  YS02001918           JUNCTION     0.20     0.81     7.88     0  02:58        0.81
  YS02001619           JUNCTION     1.21     1.48     8.41     0  02:27        1.46
  YS02001629           JUNCTION     1.55     1.84     8.39     0  02:35        1.84
  YS02001641           JUNCTION     1.65     1.93     8.37     0  02:57        1.93
  YS02001644           JUNCTION     1.65     1.92     8.35     0  02:35        1.92
  YS02001652           JUNCTION     1.50     2.11     8.71     0  03:23        1.90
  YS02001655           JUNCTION     1.27     2.14     8.99     0  02:18        1.68
  YS02001920           JUNCTION     0.30     0.87     7.88     0  02:58        0.87
  YS02001923           JUNCTION     0.14     0.62     7.88     0  02:57        0.62
  YS02001926           JUNCTION     0.21     0.44     7.88     0  02:58        0.44
  YS02001929           JUNCTION     0.10     0.17     7.87     0  02:58        0.17
  YS02001658           JUNCTION     1.00     2.13     9.27     0  02:42        1.41
  YS02001661           JUNCTION     0.78     2.15     9.55     0  02:42        1.24
  YS02001664           JUNCTION     0.35     0.57     8.50     0  03:00        0.56
  YS02001622           JUNCTION     1.23     1.50     8.40     0  02:57        1.49
  YS02001633           JUNCTION     1.64     1.95     8.40     0  02:35        1.93
  YS02001649           JUNCTION     1.69     2.05     8.44     0  02:39        2.05
  YS02001757           JUNCTION     1.81     2.17     8.43     0  03:06        2.16
  YS02001895           JUNCTION     0.43     1.14     7.89     0  02:58        1.14
  YS02001625           JUNCTION     1.51     1.78     8.38     0  02:33        1.78
  YS02163301           JUNCTION     1.58     1.88     8.40     0  02:35        1.87
  YS02163601           JUNCTION     1.69     1.99     8.39     0  02:35        1.98
  YS02164001           JUNCTION     1.63     1.92     8.38     0  02:35        1.91
  YS02001647           JUNCTION     1.49     1.81     8.42     0  02:41        1.79
  YSB1154              JUNCTION     0.26     0.41     9.47     0  02:08        0.41
  YSB6556              JUNCTION     0.16     0.30     9.47     0  02:08        0.30
  YSB1174              JUNCTION     0.21     0.36     9.47     0  02:08        0.36
  YSB1171              JUNCTION     0.41     0.56     9.47     0  02:08        0.56
  YS02006553           JUNCTION     0.86     1.58     7.86     0  02:58        1.57
  YS02006561           JUNCTION     0.26     0.80     7.46     0  02:57        0.80
  YS02006556           JUNCTION     0.83     1.54     7.85     0  02:58        1.53
  YS02006558           JUNCTION     0.87     1.57     7.84     0  02:57        1.56
  YS02001783           JUNCTION     0.58     1.23     7.37     0  02:58        1.23
  YS02001784           JUNCTION     0.62     1.21     7.27     0  02:59        1.20
  YS02001786           JUNCTION     0.60     1.10     7.13     0  02:57        1.09
  YS02001788           JUNCTION     0.60     1.01     6.98     0  02:58        1.00
  YS02001790           JUNCTION     0.84     1.22     6.86     0  03:00        1.21
  YS02001791           JUNCTION     0.94     2.26     7.73     0  01:57        1.24
  YS02001793           JUNCTION     1.44     2.44     7.28     0  01:54        1.80
  WS02004139           JUNCTION     0.42     0.58     5.49     0  02:26        0.58
  WSC                  OUTFALL      0.22     0.35     1.02     0  02:25        0.35
  3                    OUTFALL      0.05     0.13     6.13     0  02:09        0.13
  4                    OUTFALL      0.00     0.07     7.07     0  04:10        0.07
  5                    OUTFALL      0.00     0.00     5.00     0  00:00        0.00
  JK-storage           STORAGE      5.11     5.80     6.60     0  02:01        5.80
  CC-storage           STORAGE      1.06     1.40     8.40     0  03:02        1.40
  XR-storage           STORAGE      7.63     7.72     5.72     0  01:00        7.72
  
  
  *******************
  Node Inflow Summary
  *******************
  
  -------------------------------------------------------------------------------------------------
                                  Maximum  Maximum                  Lateral       Total        Flow
                                  Lateral    Total  Time of Max      Inflow      Inflow     Balance
                                   Inflow   Inflow   Occurrence      Volume      Volume       Error
  Node                 Type           LPS      LPS  days hr:min    10^6 ltr    10^6 ltr     Percent
  -------------------------------------------------------------------------------------------------
  WS02001211           JUNCTION      7.35   199.43     0  02:32       0.207        2.35       0.577
  WS02001212           JUNCTION      0.00   201.54     0  02:33           0        2.34       0.304
  WS02001213           JUNCTION      0.00   203.28     0  02:33           0        2.33       0.503
  WS02003069           JUNCTION      0.32   757.43     0  02:23     0.00902        8.01       0.186
  WS02003072           JUNCTION      0.00   757.24     0  02:24           0           8       0.259
  WS02003073           JUNCTION      1.82   758.98     0  02:24      0.0514        8.03       0.272
  WS02003060           JUNCTION     16.53   757.00     0  02:22       0.466        8.03       0.176
  WS02003066           JUNCTION      0.00   592.66     0  02:13           0        5.28       0.065
  WS02003059           JUNCTION      0.00   206.52     0  02:32           0        2.33       1.102
  WS02003067           JUNCTION      0.00   592.55     0  02:13           0        5.29       0.143
  WS02004401           JUNCTION      0.00   595.59     0  02:10           0        5.47       0.314
  WS02004402           JUNCTION      0.00   594.89     0  02:10           0        5.45       0.303
  WS02004403           JUNCTION      0.00   594.15     0  02:11           0        5.44       0.282
  WS02004404           JUNCTION      0.16   594.67     0  02:11     0.00457        5.43       0.219
  WS02004406           JUNCTION      0.00   594.28     0  02:11           0         5.4       0.538
  WS02004409           JUNCTION      0.00   593.81     0  02:11           0        5.36       0.212
  WS02004410           JUNCTION      0.00   593.40     0  02:12           0        5.35       0.250
  WS02004411           JUNCTION      0.00   593.06     0  02:12           0        5.34       0.265
  WS02004412           JUNCTION      0.00   592.83     0  02:12           0        5.33       0.298
  WS02004413           JUNCTION      0.00   592.78     0  02:13           0        5.31       0.462
  WS02004405           JUNCTION      0.04   594.71     0  02:11     0.00107        5.42       0.329
  WS02006109           JUNCTION      1.23   584.23     0  02:10      0.0347        5.51       0.233
  WS02006110           JUNCTION      0.00   584.20     0  02:10           0        5.49       0.304
  WS02006111           JUNCTION      0.00   610.55     0  02:09           0        5.47       0.057
  WS02006112           JUNCTION     10.18   601.53     0  02:09      0.0578        5.52       0.457
  WS02006113           JUNCTION      0.00   586.23     0  02:10           0        5.48       0.116
  WS02006115           JUNCTION      0.00   609.43     0  02:10           0         5.5       0.280
  WS02006116           JUNCTION      0.00   596.55     0  02:10           0        5.48       0.243
  WS02006230           JUNCTION     10.28   381.76     0  04:16        0.29        3.76       0.247
  WS02006231           JUNCTION      0.00   372.63     0  04:13           0        3.48       0.136
  WS02006232           JUNCTION      0.00   372.84     0  04:13           0        3.49       0.418
  WS02006234           JUNCTION      0.00   374.92     0  04:12           0        3.49       0.065
  WS02006235           JUNCTION      0.00   376.74     0  04:12           0        3.54       0.315
  WS02006238           JUNCTION      0.00   327.59     0  04:52           0        2.26       0.049
  WS02006240           JUNCTION      0.00   332.56     0  04:11           0        2.22       0.286
  WS02006242           JUNCTION      0.00   338.58     0  03:21           0        2.22       0.369
  WS02006243           JUNCTION      0.00   343.82     0  03:21           0         2.2      -0.487
  WS02006245           JUNCTION      0.00   347.79     0  03:21           0        2.21       0.493
  WS02006247           JUNCTION      0.00   352.25     0  03:20           0        2.21       0.078
  WS02006248           JUNCTION      0.00   356.68     0  03:20           0        2.21      -0.146
  WS02006249           JUNCTION      0.00   396.60     0  03:20           0        2.26       0.253
  WS02006239           JUNCTION      0.00   329.84     0  04:10           0        2.23      -0.279
  WS02006251           JUNCTION      0.08   401.58     0  03:20     0.00217        2.28      -0.030
  WS02006252           JUNCTION      0.00   399.97     0  04:10           0        1.92       0.006
  WS02006253           JUNCTION      1.44    57.92     0  02:08     0.00747       0.352       0.047
  WS02006256           JUNCTION      0.00   300.00     0  02:40           0        2.44       0.110
  WS02004138           JUNCTION      0.00   190.00     0  02:20           0        2.14       0.002
  WS02004407           JUNCTION      0.00   594.14     0  02:11           0        5.37       0.095
  WS02006228           JUNCTION      0.00   583.10     0  02:10           0        5.48       0.216
  WS02006229           JUNCTION      0.00   582.03     0  02:09           0         5.5       0.259
  WS02006280           JUNCTION      0.00   274.19     0  02:09           0        1.75       0.004
  WS02006284           JUNCTION      0.10   274.19     0  02:09      0.0027        1.75       0.059
  WS02006287           JUNCTION      0.00   274.08     0  02:09           0        1.75       0.041
  WSF200               JUNCTION      0.00   592.71     0  02:13           0        5.27       0.054
  HS02004901           JUNCTION     12.34    12.34     0  01:36      0.0695      0.0697       2.590
  HS02004881           JUNCTION      5.34    56.62     0  02:08      0.0303       0.326       0.043
  HS02004876           JUNCTION     10.11    51.23     0  02:08      0.0584       0.296       0.183
  HS02004870           JUNCTION     10.08    41.18     0  02:08      0.0575       0.238       0.045
  HS02004862           JUNCTION      9.99    31.21     0  02:08      0.0634        0.18       0.095
  HS02004856           JUNCTION      7.58    21.25     0  02:08      0.0432       0.118       1.230
  HS02004852           JUNCTION      0.00    13.78     0  02:09           0      0.0753       0.072
  HS02004848           JUNCTION     22.44    22.44     0  02:09       0.139       0.139       0.032
  HS02004842           JUNCTION      0.00     8.71     0  02:17           0      0.0763      20.534
  HS02004837           JUNCTION     23.78    32.32     0  02:08       0.279       0.343       0.235
  HS02004830           JUNCTION      0.15    32.46     0  02:09     0.00423       0.333       0.372
  HS02004824           JUNCTION     27.40    59.85     0  02:10       0.181       0.513       0.105
  HS02004817           JUNCTION      0.60    60.44     0  02:10      0.0169       0.529       3.251
  HS02004807           JUNCTION     18.56    78.63     0  02:09       0.106       0.618       0.705
  HS02004802           JUNCTION      0.00    78.69     0  02:10           0       0.615       0.646
  HS02004799           JUNCTION     14.98   164.66     0  02:07      0.0856       0.976       0.270
  HS02004792           JUNCTION     62.86   149.73     0  02:07       0.364       0.891       0.045
  HS02004788           JUNCTION     22.43    86.95     0  02:07       0.166       0.528       0.074
  HS02004785           JUNCTION      0.15    64.59     0  02:07     0.00423       0.363       0.135
  HS02004777           JUNCTION      0.03    64.48     0  02:07    0.000846       0.364       1.447
  HS02004770           JUNCTION     52.29    64.50     0  02:06       0.297       0.365       0.854
  HS02004480           JUNCTION      0.00   195.78     0  02:07           0        1.15       0.099
  HS02004479           JUNCTION      0.00    31.20     0  02:09           0       0.188       0.391
  HS02004478           JUNCTION      0.00   274.07     0  02:08           0        1.75       0.020
  YS02001745           JUNCTION    214.32   359.44     0  02:24        2.14        2.16       0.534
  YS02001748           JUNCTION      0.04   526.98     0  02:24     0.00127        2.15       0.940
  YS02001751           JUNCTION      0.01   360.58     0  02:14     0.00031        2.11       1.103
  YS02001754           JUNCTION      0.26   226.69     0  02:25     0.00733         2.1       1.185
  YS02001762           JUNCTION      0.00   269.07     0  02:25           0        1.79       1.188
  YS02001765           JUNCTION      0.00   264.37     0  02:28           0        1.79       1.378
  YS02001767           JUNCTION      0.54   261.48     0  02:28      0.0151        1.81       2.019
  YS02001770           JUNCTION    259.81   406.19     0  03:08        2.41        2.66       1.199
  YS02001774           JUNCTION      0.00   407.12     0  03:08           0        1.08       2.370
  YS02001779           JUNCTION      0.01   407.67     0  03:08    0.000141        1.05       1.483
  YS02001882           JUNCTION      0.00    12.77     0  02:08           0       0.015      16.164
  YS02001884           JUNCTION      0.00    18.60     0  02:22           0      0.0507      12.861
  YS02001759           JUNCTION    246.73   507.78     0  02:28        2.23        3.74       0.613
  YS02001887           JUNCTION    301.84   301.84     0  02:31        2.57         2.6       0.314
  YS02001890           JUNCTION      0.00   301.06     0  02:41           0        2.56       0.345
  YS02001898           JUNCTION      0.00   301.12     0  02:50           0        2.54       0.111
  YS02001901           JUNCTION      0.00   301.16     0  02:50           0        2.54       0.259
  YS02001904           JUNCTION      0.00   301.14     0  02:50           0        2.54       0.236
  YS02001907           JUNCTION      0.00   588.04     0  03:03           0        5.63       0.427
  YS02001910           JUNCTION      0.00   321.66     0  03:06           0         3.1       0.366
  YS02001915           JUNCTION    186.98   320.53     0  03:06         1.8         3.1       0.183
  YS02001918           JUNCTION      0.00   139.32     0  03:06           0         1.3       0.135
  YS02001619           JUNCTION    183.42   183.42     0  02:55        1.79        1.79       0.685
  YS02001629           JUNCTION      0.00   178.54     0  02:24           0        1.66       1.776
  YS02001641           JUNCTION      0.00   389.60     0  02:25           0        3.68       0.573
  YS02001644           JUNCTION    204.56  1104.16     0  03:03        2.06        8.78       0.298
  YS02001652           JUNCTION      0.00   278.32     0  02:10           0        1.87       1.262
  YS02001655           JUNCTION      0.15   392.67     0  02:08     0.00434         1.9       1.334
  YS02001920           JUNCTION      2.87   128.87     0  03:06      0.0809        1.31       0.214
  YS02001923           JUNCTION      0.04   109.25     0  03:02     0.00106        1.23       0.049
  YS02001926           JUNCTION      0.05   103.46     0  03:01     0.00147        1.23       0.254
  YS02001929           JUNCTION    100.40   100.40     0  03:01        1.23        1.23       0.040
  YS02001658           JUNCTION      0.00   597.71     0  02:20           0        1.93       1.080
  YS02001661           JUNCTION      0.00   591.90     0  02:40           0        2.26      -0.120
  YS02001664           JUNCTION    219.77   348.43     0  02:41        1.91        2.25       0.294
  YS02001622           JUNCTION      0.00   183.90     0  02:54           0        1.78       1.824
  YS02001633           JUNCTION    208.70   378.96     0  02:24        2.13        3.74       0.858
  YS02001649           JUNCTION      0.00   766.28     0  02:29           0        5.47       0.682
  YS02001757           JUNCTION      0.00  1432.99     0  02:34           0        8.22       1.132
  YS02001895           JUNCTION      0.00   301.06     0  02:41           0        2.55       0.189
  YS02001625           JUNCTION      0.00   183.61     0  02:55           0        1.74       2.267
  YS02163301           JUNCTION      0.00   204.13     0  02:20           0        1.64       1.469
  YS02163601           JUNCTION      0.11   381.36     0  02:28      0.0031         3.7       0.814
  YS02164001           JUNCTION      0.00   383.93     0  02:28           0        3.68       0.543
  YS02001647           JUNCTION      0.00   576.12     0  02:28           0        4.66       0.615
  YSB1154              JUNCTION     18.00    18.00     0  02:07       0.104       0.105       1.400
  YSB6556              JUNCTION      0.00    17.99     0  02:06           0       0.105       1.199
  YSB1174              JUNCTION     13.79    13.79     0  01:35      0.0753      0.0758       1.721
  YSB1171              JUNCTION      0.00    31.24     0  02:07           0       0.187       3.509
  YS02006553           JUNCTION      0.00   587.46     0  03:03           0        5.62       0.269
  YS02006561           JUNCTION      0.00   842.18     0  02:58           0        7.92       0.004
  YS02006556           JUNCTION      0.00   587.93     0  03:03           0        5.62       0.200
  YS02006558           JUNCTION    265.84   842.85     0  02:58        2.36        7.95       0.066
  YS02001783           JUNCTION      0.00   841.19     0  02:59           0        7.92       0.028
  YS02001784           JUNCTION      1.06   842.21     0  02:58      0.0299        7.95       0.044
  YS02001786           JUNCTION      0.06   842.20     0  02:58     0.00159        7.95       0.039
  YS02001788           JUNCTION      0.07   842.25     0  02:59       0.002        7.94       0.022
  YS02001790           JUNCTION      0.15   842.45     0  02:59     0.00437        7.95       0.022
  YS02001791           JUNCTION      0.00   842.32     0  02:58           0        7.95       0.011
  YS02001793           JUNCTION      0.00   842.59     0  02:59           0        7.95       0.007
  WS02004139           JUNCTION      0.32   190.33     0  00:20     0.00905        2.15       0.661
  WSC                  OUTFALL       0.00   758.75     0  02:25           0        8.01       0.000
  3                    OUTFALL       0.00   236.99     0  02:09           0        1.13       0.000
  4                    OUTFALL       0.00    56.60     0  04:10           0      0.0454       0.000
  5                    OUTFALL       0.00     0.00     0  00:00           0           0       0.000 ltr
  JK-storage           STORAGE       0.00   842.70     0  02:58           0         8.1      -0.103
  CC-storage           STORAGE       0.00  1433.02     0  02:33           0        6.07       1.080
  XR-storage           STORAGE     549.18   549.18     0  02:55        9.26        9.86      -0.002
  
  
  **********************
  Node Surcharge Summary
  **********************
  
  Surcharging occurs when water rises above the top of the highest conduit.
  ---------------------------------------------------------------------
                                               Max. Height   Min. Depth
                                   Hours       Above Crown    Below Rim
  Node                 Type      Surcharged         Meters       Meters
  ---------------------------------------------------------------------
  WS02004404           JUNCTION        0.07          0.002        2.778
  WS02006109           JUNCTION        0.82          0.200        1.620
  WS02006110           JUNCTION        0.40          0.047        1.803
  WS02006112           JUNCTION        0.44          0.190        1.490
  WS02006231           JUNCTION        0.19          0.021        1.509
  WS02006232           JUNCTION        0.64          0.151        1.329
  WS02006234           JUNCTION        0.28          0.056        1.184
  WS02006235           JUNCTION        0.33          0.088        1.202
  WS02006238           JUNCTION        0.41          0.104        1.326
  WS02006240           JUNCTION        0.14          0.014        1.376
  WS02006242           JUNCTION        0.22          0.047        0.773
  WS02006239           JUNCTION        0.24          0.044        1.246
  WS02006252           JUNCTION        0.57          0.192        0.908
  WS02006228           JUNCTION        0.78          0.246        1.954
  YS02001748           JUNCTION        5.31          0.258        0.932
  YS02001751           JUNCTION        5.52          0.691        0.509
  YS02001754           JUNCTION        5.74          0.774        0.376
  YS02001762           JUNCTION        5.96          1.030        0.120
  YS02001765           JUNCTION        5.94          0.977        0.123
  YS02001767           JUNCTION        5.92          0.934        0.096
  YS02001770           JUNCTION        5.91          0.892        0.028
  YS02001774           JUNCTION        5.95          0.978        0.072
  YS02001779           JUNCTION        5.73          0.680        0.000
  YS02001882           JUNCTION        0.48          0.183        0.647
  YS02001884           JUNCTION        0.56          0.227        0.643
  YS02001759           JUNCTION        5.98          1.069        0.141
  YS02001887           JUNCTION        0.71          0.318        0.632
  YS02001890           JUNCTION        0.76          0.345        0.415
  YS02001898           JUNCTION        0.37          0.117        0.623
  YS02001901           JUNCTION        0.65          0.276        0.594
  YS02001904           JUNCTION        0.61          0.245        0.605
  YS02001907           JUNCTION        1.45          0.576        0.374
  YS02001910           JUNCTION        0.83          0.376        0.724
  YS02001915           JUNCTION        0.45          0.161        0.839
  YS02001619           JUNCTION        5.53          0.479        0.131
  YS02001629           JUNCTION        5.54          0.463        0.007
  YS02001641           JUNCTION        5.95          0.934        0.166
  YS02001644           JUNCTION        5.95          0.920        0.000
  YS02001652           JUNCTION        5.75          1.079        0.051
  YS02001655           JUNCTION        5.55          1.135        0.065
  YS02001658           JUNCTION        5.35          1.129        0.171
  YS02001661           JUNCTION        0.16          1.080        0.310
  YS02001622           JUNCTION        5.57          0.496        0.124
  YS02001633           JUNCTION        5.93          0.925        0.135
  YS02001649           JUNCTION        5.96          1.050        0.000
  YS02001757           JUNCTION        6.04          1.173        0.037
  YS02001895           JUNCTION        0.41          0.141        0.609
  YS02001625           JUNCTION        5.80          0.780        0.000
  YS02163301           JUNCTION        5.92          0.880        0.150
  YS02163601           JUNCTION        5.97          0.990        0.090
  YS02164001           JUNCTION        5.94          0.921        0.179
  YS02001647           JUNCTION        5.76          0.806        0.094
  YS02006553           JUNCTION        1.52          0.581        0.609
  YS02006556           JUNCTION        1.12          0.496        0.854
  YS02006558           JUNCTION        1.06          0.473        0.927
  YS02001783           JUNCTION        1.42          0.431        1.169
  YS02001784           JUNCTION        1.51          0.406        1.084
  YS02001786           JUNCTION        1.42          0.300        1.130
  YS02001788           JUNCTION        1.39          0.207        1.273
  YS02001790           JUNCTION        5.28          0.418        0.739
  YS02001791           JUNCTION        5.45          1.462        0.458
  YS02001793           JUNCTION        5.65          1.444        1.156
  
  
  *********************
  Node Flooding Summary
  *********************
  
  Flooding refers to all water that overflows a node, whether it ponds or not.
  --------------------------------------------------------------------------
                                                             Total   Maximum
                                 Maximum   Time of Max       Flood    Ponded
                        Hours       Rate    Occurrence      Volume     Depth
  Node                 Flooded       LPS   days hr:min    10^6 ltr    Meters
  --------------------------------------------------------------------------
  YS02001779              2.27    407.54      0  03:08       1.025     0.000
  YS02001644              5.06   1103.57      0  03:03       7.138     0.000
  YS02001649              0.04     39.68      0  02:42       0.002     0.000
  YS02001625              0.58     37.14      0  02:54       0.049     0.000
  JK-storage              4.87    840.65      0  03:00       5.567     0.000
  XR-storage              6.82    543.75      0  02:50       6.801     0.000
  
  
  **********************
  Storage Volume Summary
  **********************
  
  --------------------------------------------------------------------------------------------------
                         Average     Avg  Evap Exfil       Maximum     Max    Time of Max    Maximum
                          Volume    Pcnt  Pcnt  Pcnt        Volume    Pcnt     Occurrence    Outflow
  Storage Unit           1000 m3    Full  Loss  Loss       1000 m3    Full    days hr:min        LPS
  --------------------------------------------------------------------------------------------------
  JK-storage               0.257      88     0     0         0.291     100       0  02:01     300.00
  CC-storage               2.950      19     0     0         3.910      25       0  03:02     399.97
  XR-storage               0.915      99     0     0         0.926     100       0  01:00     190.00
  
  
  ***********************
  Outfall Loading Summary
  ***********************
  
  -----------------------------------------------------------
                         Flow       Avg       Max       Total
                         Freq      Flow      Flow      Volume
  Outfall Node           Pcnt       LPS       LPS    10^6 ltr
  -----------------------------------------------------------
  WSC                  100.00    321.02    758.75       8.008
  3                     53.62    121.93    236.99       1.129
  4                     13.41     16.61     56.60       0.045
  5                      0.00      0.00      0.00       0.000
  -----------------------------------------------------------
  System                41.76    459.56    816.48       9.182
  
  
  ********************
  Link Flow Summary
  ********************
  
  -----------------------------------------------------------------------------
                                 Maximum  Time of Max   Maximum    Max/    Max/
                                  |Flow|   Occurrence   |Veloc|    Full    Full
  Link                 Type          LPS  days hr:min     m/sec    Flow   Depth
  -----------------------------------------------------------------------------
  WS02003066WSF200     CONDUIT    592.71     0  02:13      2.92    0.10    0.24
  WS02006287WS02006284 CONDUIT    274.09     0  02:09      1.78    0.13    0.25
  WS02006284WS02006280 CONDUIT    274.19     0  02:09      2.02    0.11    0.23
  WS02006280WS02006229 CONDUIT    274.19     0  02:09      3.26    0.06    0.16
  WS02006229WS02006228 CONDUIT    583.10     0  02:10      1.16    1.93    1.00
  WS02006256WS02006235 CONDUIT    149.96     0  00:25      2.14    1.59    1.00
  WS02006253WS02006251 CONDUIT     65.11     0  02:16      0.53    0.20    0.87
  WS02006252WS02006251 CONDUIT    400.18     0  03:20      3.18    1.47    1.00
  WS02006251WS02006249 CONDUIT    396.60     0  03:20      1.17    1.14    0.84
  WS02006249WS02006248 CONDUIT    356.68     0  03:20      1.16    1.95    0.78
  WS02006248WS02006247 CONDUIT    352.25     0  03:20      1.12    0.77    0.81
  WS02006247WS02006245 CONDUIT    347.79     0  03:21      1.09    2.76    0.86
  WS02006245WS02006243 CONDUIT    343.82     0  03:21      1.11    1.02    0.89
  WS02006243WS02006242 CONDUIT    338.58     0  03:21      1.00    0.72    0.97
  WS02006242WS02006240 CONDUIT    332.56     0  04:11      0.96    1.32    1.00
  WS02006240WS02006239 CONDUIT    329.84     0  04:10      0.99    1.04    1.00
  WS02006239WS02006238 CONDUIT    327.59     0  04:52      0.91    1.05    1.00
  WS02006238WS02006235 CONDUIT    327.16     0  04:52      0.91    0.73    1.00
  WS02006235WS02006234 CONDUIT    374.92     0  04:12      1.10    3.96    1.00
  WS02006234WS02006232 CONDUIT    372.84     0  04:13      0.98    0.75    1.00
  WS02006232WS02006231 CONDUIT    372.63     0  04:13      1.03    0.78    1.00
  WS02006231WS02006230 CONDUIT    371.48     0  04:16      1.31    5.63    0.99
  WS02006230WS02006229 CONDUIT    381.75     0  04:16      0.99    8.50    1.00
  WS02006228WS02006109 CONDUIT    583.00     0  02:10      1.16    2.55    1.00
  WS02006116WS02004401 CONDUIT    595.59     0  02:10      0.81    0.82    0.89
  WS02006115WS02006116 CONDUIT    596.55     0  02:10      0.93    0.77    0.81
  WS02006113WS02006111 CONDUIT    610.55     0  02:09      2.54    0.73    0.48
  WS02006112WS02006115 CONDUIT    609.43     0  02:10      0.82    0.36    0.90
  WS02006111WS02006112 CONDUIT    591.51     0  02:09      1.62    0.28    0.68
  WS02006110WS02006113 CONDUIT    586.23     0  02:10      1.37    0.53    0.80
  WS02006109WS02006110 CONDUIT    584.20     0  02:10      1.16    1.12    1.00
  WS02004411WS02004412 CONDUIT    592.83     0  02:12      0.97    0.84    0.73
  WS02004401WS02004402 CONDUIT    594.89     0  02:10      0.82    0.71    0.91
  WS02004413WS02003067 CONDUIT    592.55     0  02:13      1.17    0.25    0.61
  WS02004412WS02004413 CONDUIT    592.78     0  02:13      0.87    0.40    0.81
  WS02004410WS02004411 CONDUIT    593.06     0  02:12      0.98    0.81    0.72
  WS02004409WS02004410 CONDUIT    593.40     0  02:12      0.99    0.77    0.71
  WS02004407WS02004409 CONDUIT    593.81     0  02:11      1.49    0.21    0.51
  WS02004406WS02004407 CONDUIT    594.14     0  02:11      1.10    0.27    0.65
  WS02004405WS02004406 CONDUIT    594.28     0  02:11      0.76    1.17    0.99
  WS02004404WS02004405 CONDUIT    594.67     0  02:11      0.96    5.83    1.00
  WS02004403WS02004404 CONDUIT    594.51     0  02:11      0.85    0.43    0.97
  WS02004402WS02004403 CONDUIT    594.15     0  02:11      0.86    0.85    0.93
  WS02004139WS02001211 CONDUIT    192.08     0  02:32      0.53    0.24    0.47
  WS02004138WS02004139 CONDUIT    190.00     0  00:20      2.39    0.04    0.33
  WS02003067WS02003066 CONDUIT    592.66     0  02:13      1.28    0.19    0.43
  WS02001213WS02003059 CONDUIT    206.52     0  02:32      0.47    0.34    0.68
  WS02001212WS02001213 CONDUIT    203.28     0  02:33      1.03    0.31    0.36
  WS02001211WS02001212 CONDUIT    201.54     0  02:33      0.54    0.15    0.51
  WS02003072WS02003073 CONDUIT    757.16     0  02:24      1.60    1.64    0.44
  WS02003069WS02003072 CONDUIT    757.24     0  02:24      1.51    0.36    0.45
  WS02003060WS02003069 CONDUIT    757.11     0  02:23      1.77    0.30    0.40
  WS02003059WS02003060 CONDUIT    210.92     0  02:32      0.67    0.14    0.59
  HS02004901HS02004770 CONDUIT     12.22     0  02:07      0.05    0.05    0.35
  HS02004876HS02004881 CONDUIT     51.32     0  02:08      0.76    0.55    0.10
  HS02004870HS02004876 CONDUIT     41.17     0  02:09      0.52    0.03    0.11
  HS02004842HS02004848 CONDUIT      8.71     0  02:17      0.04    0.01    0.29
  HS02004837HS02004842 CONDUIT      8.85     0  02:14      0.42    0.01    0.30
  HS02004830HS02004837 CONDUIT     32.31     0  02:09      0.50    0.03    0.09
  HS02004824HS02004830 CONDUIT     32.45     0  02:09      0.53    0.04    0.09
  HS02004817HS02004824 CONDUIT     59.84     0  02:10      0.20    0.03    0.43
  HS02004770HS02004777 CONDUIT     64.45     0  02:07      0.26    0.12    0.36
  HS02004799HS02004480 CONDUIT    164.63     0  02:07      0.67    0.21    0.35
  HS02004792HS02004799 CONDUIT    149.69     0  02:07      0.76    0.09    0.28
  HS02004788HS02004792 CONDUIT     86.94     0  02:08      0.90    0.06    0.14
  HS02004785HS02004788 CONDUIT     64.57     0  02:08      0.57    0.49    0.16
  HS02004777HS02004785 CONDUIT     64.44     0  02:07      0.31    0.08    0.29
  HS02004480HS02004478 CONDUIT    195.75     0  02:08      1.06    0.82    0.26
  HS02004479HS02004480 CONDUIT     31.31     0  02:10      0.28    0.03    0.34
  HS02004862HS02004870 CONDUIT     31.19     0  02:09      0.56    0.03    0.08
  HS02004848HS02004852 CONDUIT     13.78     0  02:09      0.38    0.02    0.05
  HS02004856HS02004862 CONDUIT     21.24     0  02:09      0.41    0.02    0.07
  HS02004852HS02004856 CONDUIT     13.76     0  02:09      0.18    0.02    0.11
  HS02004802HS02004478 CONDUIT     78.88     0  02:11      0.38    0.07    0.29
  HS02004478WS02006287 CONDUIT    274.08     0  02:09      1.48    0.08    0.21
  HS02004817HS02004807 CONDUIT     60.62     0  02:11      0.15    0.04    0.56
  HS02004807HS02004802 CONDUIT     78.69     0  02:10      0.32    0.15    0.35
  YS02001759YS02001757 CONDUIT    510.42     0  02:28      0.65    0.36    1.00
  YS02001762YS02001759 CONDUIT    275.00     0  02:21      0.35    0.32    1.00
  YS02001765YS02001762 CONDUIT    269.07     0  02:25      0.34    0.25    1.00
  YS02001770YS02001767 CONDUIT    260.94     0  02:28      0.38    1.03    1.00
  YS02001774YS02001770 CONDUIT    407.12     0  03:08      0.52    0.26    1.00
  YS02001779YS02001774 CONDUIT    407.67     0  03:08      0.52    0.21    1.00
  YS02001649YS02001757 CONDUIT    767.01     0  02:27      0.98    0.47    1.00
  YS02001767YS02001765 CONDUIT    264.37     0  02:28      0.35    0.33    1.00
  YS02006561YS02001783 CONDUIT    841.19     0  02:59      2.02    0.44    1.00
  YS02001783YS02001784 CONDUIT    841.15     0  02:58      1.67    1.16    1.00
  YS02001784YS02001785 CONDUIT    842.15     0  02:58      1.68    1.96    1.00
  YS02001788YS02001790 CONDUIT    842.29     0  02:59      2.03    0.62    1.00
  YS02001790YS02001791 CONDUIT    842.32     0  02:58      2.38    0.92    1.00
  YS02001791YS02001793 CONDUIT    842.59     0  02:59      4.62    0.36    1.00
  YS02001910YS02001907 CONDUIT    321.66     0  03:06      0.50    0.18    1.00
  YS02001786YS02001788 CONDUIT    842.18     0  02:59      2.02    1.62    1.00
  YS02001915YS02001910 CONDUIT    321.66     0  03:06      0.56    0.16    1.00
  YS02001918YS02001915 CONDUIT    149.99     0  03:06      0.44    0.08    0.91
  YS02001923YS02001920 CONDUIT    126.00     0  03:06      0.66    0.06    0.74
  YS02001926YS02001923 CONDUIT    109.22     0  03:02      0.76    0.16    0.42
  YS02001929YS02001926 CONDUIT    103.41     0  03:01      0.81    0.05    0.30
  YS02001920YS02001918 CONDUIT    139.32     0  03:06      0.65    0.13    0.84
  YS02001629YS02163301 CONDUIT    204.13     0  02:20      0.26    0.25    1.00
  YS02001619YS02001622 CONDUIT    183.90     0  02:54      0.67    0.27    1.00
  YS02001622YS02001625 CONDUIT    183.61     0  02:55      0.32    0.10    1.00
  YS02001625YS02001629 CONDUIT    178.54     0  02:24      0.27    0.08    1.00
  YS02163301YS02001633 CONDUIT    204.12     0  02:20      0.26    0.19    1.00
  YS02163601YS02164001 CONDUIT    383.93     0  02:28      0.49    0.34    1.00
  YS02164001YS02001641 CONDUIT    389.60     0  02:25      0.50    0.53    1.00
  YS02001641YS02001644 CONDUIT    393.05     0  02:25      0.50    1.27    1.00
  YS02001647YS02001649 CONDUIT    578.18     0  02:28      0.74    0.31    1.00
  YS02006553YS02006556 CONDUIT    587.93     0  03:03      0.75    0.50    1.00
  YS02006556YS02006558 CONDUIT    589.10     0  03:03      0.75    0.47    1.00
  YSB6556YSB1171       CONDUIT     18.03     0  02:09      0.07    0.02    0.61
  YS02001907YS02006553 CONDUIT    587.46     0  03:03      0.65    0.69    1.00
  YS02006558YS02006561 CONDUIT    842.18     0  02:58      3.14    1.86    1.00
  YS02001633YS02163601 CONDUIT    381.25     0  02:28      0.49    0.40    1.00
  YS02001644YS02001647 CONDUIT    576.12     0  02:28      0.73    0.34    1.00
  YS02001745YS02001748 CONDUIT    526.93     0  02:24      1.53    0.20    0.95
  YS02001748YS02001751 CONDUIT    360.56     0  02:14      1.14    0.18    1.00
  YS02001751YS02001754 CONDUIT    226.43     0  02:25      0.97    0.11    1.00
  YS02001754YS02001757 CONDUIT    226.36     0  02:25      0.33    0.09    1.00
  YS02001882YS02001884 CONDUIT     12.77     0  02:08      0.12    0.01    1.00
  YS02001884YS02001887 CONDUIT     19.19     0  03:26      0.09    0.03    1.00
  YS02001890YS02001895 CONDUIT    301.06     0  02:41      0.45    0.14    1.00
  YS02001895YS02001898 CONDUIT    301.12     0  02:50      0.57    0.52    1.00
  YS02001898YS02001901 CONDUIT    301.16     0  02:50      0.50    0.19    1.00
  YS02001901YS02001904 CONDUIT    301.14     0  02:50      0.45    0.47    1.00
  YS02001904YS02001907 CONDUIT    301.04     0  02:51      0.40    0.11    1.00
  YS02001887YS02001890 CONDUIT    301.06     0  02:41      0.40    0.52    1.00
  YS02001652YS02001649 CONDUIT    283.48     0  02:10      0.58    0.14    1.00
  YS02001655YS02001652 CONDUIT    278.32     0  02:10      1.05    0.14    1.00
  YS02001658YS02001655 CONDUIT    392.51     0  02:08      1.31    0.17    1.00
  YS02001661YS02001658 CONDUIT    597.71     0  02:20      1.61    0.23    1.00
  YS02001664YS02001661 CONDUIT    591.90     0  02:40      1.54    0.19    0.73
  YSB1154YSB6556       CONDUIT     17.99     0  02:06      0.16    0.03    0.50
  YSB1174YSB1171       CONDUIT     13.76     0  01:36      0.06    0.02    0.62
  YSB1171HS02004479    CONDUIT     31.20     0  02:09      0.54    0.02    0.48
  HS02004881HS02006253 CONDUIT     56.62     0  02:08      1.86    0.01    0.21
  YS02001793JiankangQianchi CONDUIT    842.70     0  02:58      2.62    0.07    1.00
  YS02001757CaochengTiaoxuchi CONDUIT   1433.02     0  02:33      2.34    0.63    1.00
  WSF200WS02003060     CONDUIT    592.65     0  02:13      2.17    0.13    0.32
  1                    CONDUIT    758.75     0  02:25      3.09    0.26    0.35
  2                    CONDUIT     56.60     0  04:10      4.12    0.14    0.25
  3                    CONDUIT    236.99     0  02:09      8.21    0.38    0.43
  4                    CONDUIT      0.00     0  00:00      0.00    0.00    0.00
  CC-Pump-1            PUMP       200.00     0  01:50              1.00
  CC-Pump-2            PUMP       200.00     0  04:10              1.00
  JK-Pump-1            PUMP       299.89     0  06:20              1.00
  JK-Pump-2            PUMP       300.00     0  00:30              1.00
  XR-Pump-1            PUMP        95.00     0  00:00              1.00
  XR-Pump-2            PUMP        94.98     0  03:30              1.00
  XR-Pump-3            PUMP        94.97     0  06:10              1.00
  XR-Pump-4            PUMP        95.00     0  00:20              1.00
  
  
  ***************************
  Flow Classification Summary
  ***************************
  
  -------------------------------------------------------------------------------------
                      Adjusted    ---------- Fraction of Time in Flow Class ---------- 
                       /Actual         Up    Down  Sub   Sup   Up    Down  Norm  Inlet 
  Conduit               Length    Dry  Dry   Dry   Crit  Crit  Crit  Crit  Ltd   Ctrl  
  -------------------------------------------------------------------------------------
  WS02003066WSF200        1.00   0.07  0.00  0.00  0.00  0.93  0.00  0.00  0.74  0.00
  WS02006287WS02006284    1.00   0.05  0.01  0.00  0.56  0.37  0.00  0.00  0.68  0.00
  WS02006284WS02006280    1.00   0.06  0.00  0.00  0.00  0.00  0.00  0.94  0.00  0.00
  WS02006280WS02006229    1.00   0.06  0.00  0.00  0.00  0.00  0.00  0.94  0.00  0.00
  WS02006229WS02006228    1.00   0.00  0.00  0.00  1.00  0.00  0.00  0.00  0.00  0.00
  WS02006256WS02006235    1.00   0.01  0.00  0.00  0.99  0.00  0.00  0.00  0.00  0.00
  WS02006253WS02006251    1.00   0.01  0.04  0.00  0.94  0.00  0.01  0.00  0.00  0.00
  WS02006252WS02006251    1.00   0.09  0.02  0.00  0.00  0.00  0.90  0.00  0.00  0.00
  WS02006251WS02006249    1.00   0.00  0.00  0.00  1.00  0.00  0.00  0.00  0.45  0.00
  WS02006249WS02006248    1.00   0.00  0.00  0.00  0.67  0.00  0.32  0.00  0.00  0.00
  WS02006248WS02006247    1.00   0.00  0.00  0.00  0.96  0.00  0.00  0.03  0.41  0.00
  WS02006247WS02006245    1.00   0.01  0.00  0.00  0.95  0.00  0.00  0.04  0.00  0.00
  WS02006245WS02006243    1.00   0.01  0.00  0.00  0.91  0.00  0.00  0.08  0.03  0.00
  WS02006243WS02006242    1.00   0.01  0.00  0.00  0.98  0.00  0.00  0.01  0.33  0.00
  WS02006242WS02006240    1.00   0.01  0.00  0.00  0.97  0.00  0.02  0.00  0.00  0.00
  WS02006240WS02006239    1.00   0.01  0.00  0.00  0.89  0.00  0.00  0.10  0.02  0.00
  WS02006239WS02006238    1.00   0.01  0.00  0.00  0.99  0.00  0.00  0.00  0.10  0.00
  WS02006238WS02006235    1.00   0.01  0.00  0.00  0.99  0.00  0.00  0.00  0.00  0.00
  WS02006235WS02006234    1.00   0.01  0.00  0.00  0.92  0.00  0.07  0.00  0.00  0.00
  WS02006234WS02006232    1.00   0.01  0.00  0.00  0.99  0.00  0.00  0.00  0.02  0.00
  WS02006232WS02006231    1.00   0.01  0.00  0.00  0.98  0.00  0.01  0.00  0.00  0.00
  WS02006231WS02006230    1.00   0.01  0.00  0.00  0.40  0.00  0.58  0.00  0.00  0.00
  WS02006230WS02006229    1.00   0.00  0.00  0.00  0.99  0.00  0.00  0.01  0.01  0.00
  WS02006228WS02006109    1.00   0.00  0.00  0.00  1.00  0.00  0.00  0.00  0.01  0.00
  WS02006116WS02004401    1.00   0.04  0.00  0.00  0.96  0.00  0.00  0.00  0.00  0.00
  WS02006115WS02006116    1.00   0.04  0.00  0.00  0.95  0.00  0.00  0.01  0.00  0.00
  WS02006113WS02006111    1.00   0.02  0.00  0.00  0.00  0.98  0.00  0.00  0.17  0.00
  WS02006112WS02006115    1.00   0.02  0.01  0.00  0.96  0.00  0.01  0.00  0.00  0.00
  WS02006111WS02006112    1.00   0.02  0.00  0.00  0.97  0.00  0.00  0.01  0.93  0.00
  WS02006110WS02006113    1.00   0.00  0.02  0.00  0.98  0.00  0.00  0.00  0.00  0.00
  WS02006109WS02006110    1.00   0.00  0.00  0.00  0.99  0.00  0.00  0.00  0.00  0.00
  WS02004411WS02004412    1.00   0.05  0.00  0.00  0.95  0.00  0.00  0.00  0.00  0.00
  WS02004401WS02004402    1.00   0.04  0.00  0.00  0.96  0.00  0.00  0.00  0.00  0.00
  WS02004413WS02003067    1.00   0.05  0.01  0.00  0.00  0.00  0.93  0.00  0.00  0.00
  WS02004412WS02004413    1.00   0.05  0.00  0.00  0.95  0.00  0.00  0.00  0.01  0.00
  WS02004410WS02004411    1.00   0.05  0.00  0.00  0.95  0.00  0.00  0.00  0.01  0.00
  WS02004409WS02004410    1.00   0.05  0.00  0.00  0.95  0.00  0.00  0.00  0.03  0.00
  WS02004407WS02004409    1.00   0.05  0.00  0.00  0.95  0.00  0.00  0.00  0.89  0.00
  WS02004406WS02004407    1.00   0.00  0.05  0.00  0.95  0.00  0.00  0.00  0.00  0.00
  WS02004405WS02004406    1.00   0.00  0.00  0.00  1.00  0.00  0.00  0.00  0.04  0.00
  WS02004404WS02004405    1.00   0.00  0.00  0.00  1.00  0.00  0.00  0.00  0.00  0.00
  WS02004403WS02004404    1.00   0.00  0.04  0.00  0.96  0.00  0.00  0.00  0.00  0.00
  WS02004402WS02004403    1.00   0.04  0.00  0.00  0.96  0.00  0.00  0.00  0.00  0.00
  WS02004139WS02001211    1.00   0.00  0.00  0.00  1.00  0.00  0.00  0.00  0.00  0.00
  WS02004138WS02004139    1.00   0.00  0.00  0.00  1.00  0.00  0.00  0.00  1.00  0.00
  WS02003067WS02003066    1.00   0.07  0.01  0.00  0.93  0.00  0.00  0.00  0.00  0.00
  WS02001213WS02003059    1.00   0.00  0.00  0.00  1.00  0.00  0.00  0.00  0.00  0.00
  WS02001212WS02001213    1.00   0.00  0.00  0.00  0.50  0.00  0.50  0.00  0.00  0.00
  WS02001211WS02001212    1.00   0.00  0.00  0.00  1.00  0.00  0.00  0.00  0.00  0.00
  WS02003072WS02003073    1.00   0.00  0.00  0.00  0.00  0.00  0.00  1.00  0.00  0.00
  WS02003069WS02003072    1.00   0.00  0.00  0.00  1.00  0.00  0.00  0.00  0.72  0.00
  WS02003060WS02003069    1.00   0.00  0.00  0.00  0.97  0.03  0.00  0.00  0.45  0.00
  WS02003059WS02003060    1.00   0.00  0.00  0.00  1.00  0.00  0.00  0.00  0.02  0.00
  HS02004901HS02004770    1.00   0.06  0.00  0.00  0.94  0.00  0.00  0.00  0.00  0.00
  HS02004876HS02004881    1.00   0.00  0.00  0.00  1.00  0.00  0.00  0.00  0.00  0.00
  HS02004870HS02004876    1.00   0.00  0.00  0.00  1.00  0.00  0.00  0.00  0.95  0.00
  HS02004842HS02004848    1.00   0.00  0.06  0.00  0.94  0.00  0.00  0.00  0.58  0.00
  HS02004837HS02004842    1.00   0.00  0.00  0.00  1.00  0.00  0.00  0.00  0.11  0.00
  HS02004830HS02004837    1.00   0.00  0.00  0.00  1.00  0.00  0.00  0.00  0.99  0.00
  HS02004824HS02004830    1.00   0.00  0.00  0.00  1.00  0.00  0.00  0.00  0.00  0.00
  HS02004817HS02004824    1.00   0.00  0.00  0.00  1.00  0.00  0.00  0.00  1.00  0.00
  HS02004770HS02004777    1.00   0.00  0.06  0.00  0.94  0.00  0.00  0.00  0.03  0.00
  HS02004799HS02004480    1.00   0.00  0.01  0.00  0.93  0.00  0.06  0.00  0.00  0.00
  HS02004792HS02004799    1.00   0.00  0.00  0.00  1.00  0.00  0.00  0.00  0.98  0.00
  HS02004788HS02004792    1.00   0.00  0.00  0.00  1.00  0.00  0.00  0.00  0.98  0.00
  HS02004785HS02004788    1.00   0.00  0.00  0.00  1.00  0.00  0.00  0.00  0.00  0.00
  HS02004777HS02004785    1.00   0.00  0.00  0.00  1.00  0.00  0.00  0.00  0.12  0.00
  HS02004480HS02004478    1.00   0.06  0.00  0.00  0.59  0.00  0.00  0.35  0.00  0.00
  HS02004479HS02004480    1.00   0.01  0.00  0.00  0.99  0.00  0.00  0.00  0.12  0.00
  HS02004862HS02004870    1.00   0.00  0.00  0.00  1.00  0.00  0.00  0.00  0.04  0.00
  HS02004848HS02004852    1.00   0.06  0.00  0.00  0.94  0.00  0.00  0.00  0.76  0.00
  HS02004856HS02004862    1.00   0.00  0.07  0.00  0.93  0.00  0.00  0.00  0.83  0.00
  HS02004852HS02004856    1.00   0.06  0.00  0.00  0.94  0.00  0.00  0.00  0.86  0.00
  HS02004802HS02004478    1.00   0.06  0.00  0.00  0.94  0.00  0.00  0.00  0.03  0.00
  HS02004478WS02006287    1.00   0.07  0.00  0.00  0.69  0.25  0.00  0.00  0.65  0.00
  HS02004817HS02004807    1.00   0.00  0.06  0.00  0.94  0.00  0.00  0.00  0.01  0.00
  HS02004807HS02004802    1.00   0.06  0.00  0.00  0.94  0.00  0.00  0.00  0.00  0.00
  YS02001759YS02001757    1.00   0.00  0.00  0.00  1.00  0.00  0.00  0.00  0.16  0.00
  YS02001762YS02001759    1.00   0.00  0.00  0.00  1.00  0.00  0.00  0.00  0.03  0.00
  YS02001765YS02001762    1.00   0.00  0.00  0.00  1.00  0.00  0.00  0.00  0.14  0.00
  YS02001770YS02001767    1.00   0.00  0.00  0.00  1.00  0.00  0.00  0.00  0.00  0.00
  YS02001774YS02001770    1.00   0.00  0.06  0.00  0.94  0.00  0.00  0.00  0.03  0.00
  YS02001779YS02001774    1.00   0.00  0.00  0.00  1.00  0.00  0.00  0.00  0.18  0.00
  YS02001649YS02001757    1.00   0.00  0.00  0.00  1.00  0.00  0.00  0.00  0.16  0.00
  YS02001767YS02001765    1.00   0.00  0.00  0.00  1.00  0.00  0.00  0.00  0.00  0.00
  YS02006561YS02001783    1.00   0.07  0.00  0.00  0.76  0.17  0.00  0.00  0.60  0.00
  YS02001783YS02001784    1.00   0.00  0.07  0.00  0.93  0.00  0.00  0.00  0.00  0.00
  YS02001784YS02001785    1.00   0.00  0.00  0.00  1.00  0.00  0.00  0.00  0.17  0.00
  YS02001788YS02001790    1.00   0.00  0.00  0.00  0.88  0.12  0.00  0.00  0.23  0.00
  YS02001790YS02001791    1.00   0.00  0.00  0.00  0.82  0.18  0.00  0.00  0.07  0.00
  YS02001791YS02001793    1.00   0.00  0.00  0.00  0.84  0.16  0.00  0.00  0.01  0.00
  YS02001910YS02001907    1.00   0.00  0.00  0.00  0.99  0.00  0.00  0.01  0.12  0.00
  YS02001786YS02001788    1.00   0.00  0.00  0.00  0.87  0.13  0.00  0.00  0.00  0.00
  YS02001915YS02001910    1.00   0.00  0.00  0.00  0.99  0.01  0.00  0.00  0.16  0.00
  YS02001918YS02001915    1.00   0.00  0.00  0.00  0.99  0.00  0.00  0.00  0.59  0.00
  YS02001923YS02001920    1.00   0.00  0.00  0.00  1.00  0.00  0.00  0.00  0.87  0.00
  YS02001926YS02001923    1.00   0.00  0.04  0.00  0.10  0.00  0.86  0.00  0.00  0.00
  YS02001929YS02001926    1.00   0.00  0.06  0.00  0.94  0.00  0.00  0.00  0.85  0.00
  YS02001920YS02001918    1.00   0.00  0.00  0.00  1.00  0.00  0.00  0.00  0.00  0.00
  YS02001629YS02163301    1.00   0.06  0.00  0.00  0.93  0.00  0.00  0.00  0.00  0.00
  YS02001619YS02001622    1.00   0.06  0.00  0.00  0.94  0.00  0.00  0.00  0.00  0.00
  YS02001622YS02001625    1.00   0.06  0.00  0.00  0.94  0.00  0.00  0.00  0.04  0.00
  YS02001625YS02001629    1.00   0.06  0.01  0.00  0.91  0.00  0.01  0.00  0.00  0.00
  YS02163301YS02001633    1.00   0.00  0.06  0.00  0.94  0.00  0.00  0.00  0.00  0.00
  YS02163601YS02164001    1.00   0.00  0.05  0.00  0.95  0.00  0.00  0.00  0.00  0.00
  YS02164001YS02001641    1.00   0.00  0.04  0.00  0.95  0.00  0.00  0.00  0.06  0.00
  YS02001641YS02001644    1.00   0.00  0.00  0.00  1.00  0.00  0.00  0.00  0.00  0.00
  YS02001647YS02001649    1.00   0.00  0.07  0.00  0.93  0.00  0.00  0.00  0.01  0.00
  YS02006553YS02006556    1.00   0.00  0.00  0.00  1.00  0.00  0.00  0.00  0.03  0.00
  YS02006556YS02006558    1.00   0.00  0.00  0.00  1.00  0.00  0.00  0.00  0.00  0.00
  YSB6556YSB1171          1.00   0.01  0.05  0.00  0.94  0.00  0.00  0.00  0.00  0.00
  YS02001907YS02006553    1.00   0.00  0.00  0.00  0.99  0.00  0.00  0.00  0.00  0.00
  YS02006558YS02006561    1.00   0.07  0.00  0.00  0.15  0.78  0.00  0.00  0.52  0.00
  YS02001633YS02163601    1.00   0.00  0.00  0.00  1.00  0.00  0.00  0.00  0.15  0.00
  YS02001644YS02001647    1.00   0.00  0.07  0.00  0.93  0.00  0.00  0.00  0.00  0.00
  YS02001745YS02001748    1.00   0.00  0.00  0.00  0.88  0.01  0.00  0.11  0.04  0.00
  YS02001748YS02001751    1.00   0.00  0.00  0.00  0.97  0.03  0.00  0.00  0.14  0.00
  YS02001751YS02001754    1.00   0.00  0.00  0.00  0.92  0.00  0.00  0.08  0.02  0.00
  YS02001754YS02001757    1.00   0.00  0.00  0.00  1.00  0.00  0.00  0.00  0.18  0.00
  YS02001882YS02001884    1.00   0.06  0.00  0.00  0.94  0.00  0.00  0.00  0.00  0.00
  YS02001884YS02001887    1.00   0.02  0.03  0.00  0.95  0.00  0.00  0.00  0.00  0.00
  YS02001890YS02001895    1.00   0.00  0.06  0.00  0.93  0.00  0.00  0.00  0.00  0.00
  YS02001895YS02001898    1.00   0.07  0.00  0.00  0.93  0.00  0.01  0.00  0.00  0.00
  YS02001898YS02001901    1.00   0.07  0.00  0.00  0.93  0.00  0.00  0.00  0.01  0.00
  YS02001901YS02001904    1.00   0.07  0.00  0.00  0.93  0.00  0.00  0.00  0.00  0.00
  YS02001904YS02001907    1.00   0.00  0.07  0.00  0.93  0.00  0.00  0.00  0.00  0.00
  YS02001887YS02001890    1.00   0.00  0.00  0.00  0.99  0.00  0.01  0.00  0.00  0.00
  YS02001652YS02001649    1.00   0.00  0.00  0.00  1.00  0.00  0.00  0.00  0.16  0.00
  YS02001655YS02001652    1.00   0.00  0.00  0.00  0.92  0.00  0.00  0.08  0.02  0.00
  YS02001658YS02001655    1.00   0.00  0.06  0.00  0.91  0.03  0.00  0.00  0.04  0.00
  YS02001661YS02001658    1.00   0.06  0.00  0.00  0.88  0.06  0.00  0.00  0.03  0.00
  YS02001664YS02001661    1.00   0.06  0.00  0.00  0.83  0.11  0.00  0.00  0.19  0.00
  YSB1154YSB6556          1.00   0.06  0.00  0.00  0.94  0.00  0.00  0.00  0.02  0.00
  YSB1174YSB1171          1.00   0.01  0.04  0.00  0.95  0.00  0.00  0.00  0.00  0.00
  YSB1171HS02004479       1.00   0.01  0.00  0.00  0.99  0.00  0.00  0.00  0.10  0.00
  HS02004881HS02006253    1.00   0.01  0.00  0.00  0.40  0.03  0.00  0.55  0.26  0.00
  YS02001793JiankangQianchi    1.00   0.00  0.00  0.00  0.96  0.04  0.00  0.00  0.17  0.00
  YS02001757CaochengTiaoxuchi    1.00   0.00  0.09  0.00  0.90  0.01  0.00  0.00  0.00  0.00
  WSF200WS02003060        1.00   0.00  0.07  0.00  0.33  0.59  0.00  0.00  0.34  0.00
  1                       1.00   0.00  0.00  0.00  0.00  1.00  0.00  0.00  0.32  0.00
  2                       1.00   0.86  0.00  0.00  0.00  0.14  0.00  0.00  0.02  0.00
  3                       1.00   0.46  0.00  0.00  0.00  0.54  0.00  0.00  0.27  0.00
  4                       1.00   1.00  0.00  0.00  0.00  0.00  0.00  0.00  0.00  0.00
  
  
  *************************
  Conduit Surcharge Summary
  *************************
  
  ----------------------------------------------------------------------------
                                                           Hours        Hours 
                         --------- Hours Full --------   Above Full   Capacity
  Conduit                Both Ends  Upstream  Dnstream   Normal Flow   Limited
  ----------------------------------------------------------------------------
  WS02006229WS02006228        0.78      0.85      0.78      2.16         0.78
  WS02006256WS02006235        4.39      4.39      6.49      2.11         0.01
  WS02006252WS02006251        0.21      0.21      0.57      0.48         0.01
  WS02006251WS02006249        0.01      0.01      0.01      0.20         0.01
  WS02006249WS02006248        0.01      0.01      0.01      1.53         0.01
  WS02006247WS02006245        0.01      0.01      0.01      2.16         0.01
  WS02006245WS02006243        0.01      0.01      0.01      0.04         0.01
  WS02006243WS02006242        0.01      0.01      0.22      0.01         0.01
  WS02006242WS02006240        0.14      0.14      0.36      0.55         0.01
  WS02006240WS02006239        0.18      0.18      0.24      0.09         0.01
  WS02006239WS02006238        0.31      0.31      0.40      0.12         0.01
  WS02006238WS02006235        0.34      0.34      0.55      0.01         0.01
  WS02006235WS02006234        0.28      0.28      0.33      4.26         0.01
  WS02006234WS02006232        0.32      0.32      0.64      0.01         0.01
  WS02006232WS02006231        0.19      0.19      0.64      0.01         0.01
  WS02006231WS02006230        0.01      0.01      0.23      4.61         0.01
  WS02006230WS02006229        1.54      1.82      1.54      5.14         1.54
  WS02006228WS02006109        0.82      1.18      0.82      3.06         0.82
  WS02006112WS02006115        0.01      0.01      0.44      0.01         0.01
  WS02006111WS02006112        0.01      0.01      2.36      0.01         0.01
  WS02006110WS02006113        0.01      0.01      0.91      0.01         0.01
  WS02006109WS02006110        0.40      0.40      1.18      0.40         0.01
  WS02004405WS02004406        0.01      0.01      0.01      0.42         0.01
  WS02004404WS02004405        0.01      0.07      0.01      4.82         0.01
  WS02004403WS02004404        0.01      0.01      0.07      0.01         0.01
  WS02003072WS02003073        0.01      0.01      0.01      1.26         0.01
  YS02001759YS02001757        5.98      5.98      6.04      0.01         0.01
  YS02001762YS02001759        5.96      5.96      5.98      0.01         0.01
  YS02001765YS02001762        5.94      5.94      5.96      0.01         0.01
  YS02001770YS02001767        5.92      5.92      5.92      0.04         0.72
  YS02001774YS02001770        5.91      5.91      5.95      0.01         0.01
  YS02001779YS02001774        5.73      5.73      5.95      0.01         0.01
  YS02001649YS02001757        5.96      5.96      6.04      0.01         0.01
  YS02001767YS02001765        5.92      5.92      5.94      0.01         0.01
  YS02006561YS02001783        0.01      0.01      1.42      0.01         0.01
  YS02001783YS02001784        1.42      1.42      1.51      0.88         0.87
  YS02001784YS02001785        1.42      1.51      1.42      2.04         1.42
  YS02001788YS02001790        1.39      1.39      5.28      0.01         0.01
  YS02001790YS02001791        5.28      5.28      5.45      0.01         0.01
  YS02001791YS02001793        5.45      5.45      5.69      0.01         0.01
  YS02001910YS02001907        0.83      0.83      1.45      0.01         0.01
  YS02001786YS02001788        1.39      1.42      1.39      1.60         1.38
  YS02001915YS02001910        0.45      0.45      0.83      0.01         0.01
  YS02001918YS02001915        0.01      0.01      0.45      0.01         0.01
  YS02001629YS02163301        5.90      5.90      5.92      0.01         0.01
  YS02001619YS02001622        5.53      5.53      5.57      0.01         0.01
  YS02001622YS02001625        5.57      5.57      5.80      0.01         0.01
  YS02001625YS02001629        5.54      5.54      5.80      0.01         0.01
  YS02163301YS02001633        5.92      5.92      5.95      0.01         0.01
  YS02163601YS02164001        5.94      5.94      5.97      0.01         0.01
  YS02164001YS02001641        5.94      5.94      5.95      0.01         0.03
  YS02001641YS02001644        5.95      5.95      5.95      1.02         1.20
  YS02001647YS02001649        5.76      5.76      5.96      0.01         0.01
  YS02006553YS02006556        1.12      1.12      1.52      0.01         0.01
  YS02006556YS02006558        1.30      1.30      1.60      0.01         0.01
  YS02001907YS02006553        2.05      2.05      2.24      0.01         0.01
  YS02006558YS02006561        0.65      1.06      0.65      1.88         0.65
  YS02001633YS02163601        5.93      5.93      5.97      0.01         0.01
  YS02001644YS02001647        5.76      5.76      5.95      0.01         0.01
  YS02001745YS02001748        0.01      0.01      5.31      0.01         0.01
  YS02001748YS02001751        5.38      5.38      5.52      0.01         0.01
  YS02001751YS02001754        5.52      5.52      5.74      0.01         0.01
  YS02001754YS02001757        5.76      5.76      6.04      0.01         0.01
  YS02001882YS02001884        0.48      0.48      0.56      0.01         0.01
  YS02001884YS02001887        0.66      0.66      0.71      0.01         0.01
  YS02001890YS02001895        0.41      0.41      0.85      0.01         0.01
  YS02001895YS02001898        0.37      0.37      0.41      0.01         0.01
  YS02001898YS02001901        0.43      0.43      0.65      0.01         0.01
  YS02001901YS02001904        0.61      0.61      0.65      0.01         0.01
  YS02001904YS02001907        0.61      0.61      1.54      0.01         0.01
  YS02001887YS02001890        0.76      0.76      0.80      0.01         0.01
  YS02001652YS02001649        5.77      5.77      5.96      0.01         0.01
  YS02001655YS02001652        5.55      5.55      5.75      0.01         0.01
  YS02001658YS02001655        5.35      5.35      5.55      0.01         0.01
  YS02001661YS02001658        0.14      0.14      5.35      0.01         0.01
  YS02001664YS02001661        0.01      0.01      0.85      0.01         0.01
  YS02001793JiankangQianchi        5.65      5.65      6.67      0.01         0.01
  YS02001757CaochengTiaoxuchi        5.23      5.23      6.04      0.01         0.01
  
  
  ***************
  Pumping Summary
  ***************
  
  ---------------------------------------------------------------------------------------------------------
                                                  Min       Avg       Max     Total     Power    % Time Off
                        Percent   Number of      Flow      Flow      Flow    Volume     Usage    Pump Curve
  Pump                 Utilized   Start-Ups       LPS       LPS       LPS  10^6 ltr     Kw-hr    Low   High
  ---------------------------------------------------------------------------------------------------------
  CC-Pump-1               25.85           5      0.00    118.63    200.00     0.841      1.50    0.0   25.9
  CC-Pump-2               34.04           6      0.00    119.72    200.00     1.080      1.15    0.0    6.2
  JK-Pump-1                8.51           2      0.00    158.16    299.89     0.360      1.46    0.0    0.0
  JK-Pump-2               48.92           7      0.00    190.21    300.00     2.073     12.01    0.0    0.0
  XR-Pump-1               82.96           8      0.00     58.60     95.00     1.453      7.67    0.0    0.0
  XR-Pump-2               12.77           3      0.00     48.72     94.98     0.171      0.78    0.0    0.0
  XR-Pump-3               12.76           3      0.00     46.18     94.97     0.171      0.77    0.0    0.0
  XR-Pump-4               23.40           5      0.00     52.06     95.00     0.342      2.11    0.0    0.0
  

  Analysis begun on:  Wed Jan  5 18:31:50 2022
  Analysis ended on:  Wed Jan  5 18:31:52 2022
  Total elapsed time: 00:00:02