
  EPA STORM WATER MANAGEMENT MODEL - VERSION 5.1 (Build 5.3.0.dev0)
  --------------------------------------------------------------

  WARNING 04: minimum elevation drop used for Conduit WS02004404WS02004405
  WARNING 03: negative offset ignored for Link YS02001904YS02001907
  
  *********************************************************
  NOTE: The summary statistics displayed in this report are
  based on results found at every computational time step,  
  not just on results from each reporting time step.
  *********************************************************
  
  ****************
  Analysis Options
  ****************
  Flow Units ............... LPS
  Process Models:
    Rainfall/Runoff ........ YES
    RDII ................... NO
    Snowmelt ............... NO
    Groundwater ............ NO
    Flow Routing ........... YES
    Ponding Allowed ........ NO
    Water Quality .......... NO
  Infiltration Method ...... HORTON
  Flow Routing Method ...... DYNWAVE
  Surcharge Method ......... EXTRAN
  Starting Date ............ 08/28/2015 08:00:00
  Ending Date .............. 08/28/2015 15:50:00
  Antecedent Dry Days ...... 8.0
  Report Time Step ......... 00:01:00
  Wet Time Step ............ 00:01:00
  Dry Time Step ............ 00:01:00
  Routing Time Step ........ 5.00 sec
  Variable Time Step ....... YES
  Maximum Trials ........... 8
  Number of Threads ........ 4
  Head Tolerance ........... 0.001500 m
  
  
  **************************        Volume         Depth
  Runoff Quantity Continuity     hectare-m            mm
  **************************     ---------       -------
  Total Precipitation ......         5.493        12.027
  Evaporation Loss .........         0.000         0.000
  Infiltration Loss ........         1.412         3.091
  Surface Runoff ...........         3.074         6.729
  Final Storage ............         1.009         2.209
  Continuity Error (%) .....        -0.014
  
  
  **************************        Volume        Volume
  Flow Routing Continuity        hectare-m      10^6 ltr
  **************************     ---------     ---------
  Dry Weather Inflow .......         0.616         6.165
  Wet Weather Inflow .......         3.073        30.726
  Groundwater Inflow .......         0.000         0.000
  RDII Inflow ..............         0.000         0.000
  External Inflow ..........         0.102         1.024
  External Outflow .........         0.864         8.638
  Flooding Loss ............         2.346        23.459
  Evaporation Loss .........         0.000         0.000
  Exfiltration Loss ........         0.000         0.000
  Initial Stored Volume ....         0.076         0.761
  Final Stored Volume ......         0.657         6.572
  Continuity Error (%) .....         0.014
  
  
  *************************
  Highest Continuity Errors
  *************************
  Node HS02004842 (16.38%)
  Node YS02001884 (11.42%)
  Node YSB1171 (3.16%)
  Node HS02004817 (3.01%)
  Node HS02004901 (2.34%)
  
  
  ***************************
  Time-Step Critical Elements
  ***************************
  Link WS02006252WS02006251 (74.43%)
  Link 3 (8.84%)
  Link WS02006280WS02006229 (4.22%)
  Link YS02006556YS02006558 (2.71%)
  Link WS02006238WS02006235 (2.71%)
  
  
  ********************************
  Highest Flow Instability Indexes
  ********************************
  Link WS02006113WS02006111 (45)
  Link YS02163601YS02164001 (32)
  Link YS02163301YS02001633 (32)
  Link YS02001629YS02163301 (31)
  Link YS02001791YS02001793 (31)
  
  
  *************************
  Routing Time Step Summary
  *************************
  Minimum Time Step           :     0.36 sec
  Average Time Step           :     1.15 sec
  Maximum Time Step           :     5.00 sec
  Percent in Steady State     :    -0.00
  Average Iterations per Step :     4.23
  Percent Not Converging      :    20.19
  
  
  ***************************
  Subcatchment Runoff Summary
  ***************************
  
  ------------------------------------------------------------------------------------------------------------------------------
                            Total      Total      Total      Total     Imperv       Perv      Total       Total     Peak  Runoff
                           Precip      Runon       Evap      Infil     Runoff     Runoff     Runoff      Runoff   Runoff   Coeff
  Subcatchment                 mm         mm         mm         mm         mm         mm         mm    10^6 ltr      LPS
  ------------------------------------------------------------------------------------------------------------------------------
  sub0                      12.03       0.00       0.00       0.84       9.92       0.00       9.92        0.01     2.03   0.825
  sub1                      12.03       0.00       0.00       1.32       9.45       0.00       9.45        0.06    13.40   0.786
  sub2                      12.03       0.00       0.00       4.45       6.67       0.00       6.67        0.06    12.40   0.555
  sub3                      12.03       0.00       0.00       4.45       6.63       0.00       6.63        0.15    27.80   0.552
  sub4                      12.03       0.00       0.00       1.32       9.30       0.00       9.30        0.19    33.44   0.773
  sub5                      12.03       0.00       0.00       0.84       9.87       0.00       9.87        0.11    23.84   0.821
  sub7                      12.03       0.00       0.00       1.08       9.69       0.00       9.69        0.03     7.67   0.806
  sub8                      12.03       0.00       0.00       1.08       9.68       0.00       9.68        0.06    14.05   0.805
  sub9                      12.03       0.00       0.00       1.08       9.68       0.00       9.68        0.05    10.50   0.805
  sub10                     12.03       0.00       0.00       0.96       9.77       0.00       9.77        0.11    23.44   0.813
  sub11                     12.03       0.00       0.00       0.96       9.79       0.00       9.79        0.11    26.14   0.814
  sub12                     12.03       0.00       0.00       1.56       9.28       0.00       9.28        0.08    19.99   0.771
  sub14                     12.03       0.00       0.00       1.08       9.68       0.00       9.68        0.09    20.64   0.805
  sub15                     12.03       0.00       0.00       3.61       7.44       0.00       7.44        0.13    28.31   0.619
  sub16                     12.03       0.00       0.00       3.97       7.14       0.00       7.14        0.07    18.12   0.594
  sub17                     12.03       0.00       0.00       3.85       7.24       0.00       7.24        0.06    14.90   0.602
  sub22                     12.03       0.00       0.00       5.17       6.07       0.00       6.07        0.38    88.71   0.504
  sub23                     12.03       0.00       0.00       4.45       6.71       0.00       6.71        0.32    74.74   0.558
  sub60                     12.03       0.00       0.00       1.44       7.74       0.00       7.74        2.35   221.95   0.644
  sub61                     12.03       0.00       0.00       2.04       7.85       0.00       7.85        2.42   262.11   0.653
  sub62                     12.03       0.00       0.00       0.96       8.54       0.00       8.54        2.63   273.68   0.710
  sub63                     12.03       0.00       0.00       3.49       6.87       0.00       6.87        2.08   239.63   0.571
  sub64                     12.03       0.00       0.00       1.80       7.43       0.00       7.43        2.26   211.47   0.618
  sub65                     12.03       0.00       0.00       1.56       7.55       0.00       7.55        2.32   215.23   0.628
  sub66                     12.03       0.00       0.00       3.49       6.37       0.00       6.37        1.95   191.04   0.530
  sub67                     12.03       0.00       0.00       0.96       9.00       0.00       9.00        2.78   332.67   0.749
  sub68                     12.03       0.00       0.00       1.68       8.26       0.00       8.26        2.54   285.76   0.687
  sub69                     12.03       0.00       0.00       1.80       8.55       0.00       8.55        2.00   265.64   0.711
  sub70                     12.03       8.73       0.00       6.95      11.44       0.11      11.55        2.64   261.84   0.556
  sub71                     12.03       0.00       0.00       0.96       8.33       0.00       8.33        1.97   195.24   0.692
  sub72                     12.03       0.00       0.00       0.84       6.67       0.00       6.67        1.36   105.11   0.555
  sub73                     12.03      11.24       0.00       7.83      12.57       0.08      12.65        2.97   255.46   0.544
  sub74                     12.03       0.00       0.00       9.02       2.55       0.00       2.55        1.02   143.98   0.212
  
  
  ******************
  Node Depth Summary
  ******************
  
  ---------------------------------------------------------------------------------
                                 Average  Maximum  Maximum  Time of Max    Reported
                                   Depth    Depth      HGL   Occurrence   Max Depth
  Node                 Type       Meters   Meters   Meters  days hr:min      Meters
  ---------------------------------------------------------------------------------
  WS02001211           JUNCTION     0.48     0.64     5.48     0  02:11        0.64
  WS02001212           JUNCTION     0.24     0.38     5.45     0  02:11        0.38
  WS02001213           JUNCTION     0.47     0.66     5.42     0  02:11        0.66
  WS02003069           JUNCTION     0.31     0.52     5.11     0  02:12        0.52
  WS02003072           JUNCTION     0.38     0.59     4.96     0  02:13        0.59
  WS02003073           JUNCTION     0.22     0.36     4.42     0  02:14        0.36
  WS02003060           JUNCTION     0.28     0.46     5.40     0  02:12        0.46
  WS02003066           JUNCTION     0.20     0.31     5.87     0  02:05        0.31
  WS02003059           JUNCTION     0.54     0.73     5.41     0  02:12        0.73
  WS02003067           JUNCTION     0.50     0.73     6.05     0  02:04        0.73
  WS02004401           JUNCTION     0.58     0.93     6.93     0  02:00        0.93
  WS02004402           JUNCTION     0.61     0.95     6.91     0  02:00        0.94
  WS02004403           JUNCTION     0.63     0.96     6.89     0  02:00        0.95
  WS02004404           JUNCTION     0.71     1.12     6.97     0  01:58        1.02
  WS02004406           JUNCTION     0.71     1.00     6.83     0  02:00        1.00
  WS02004409           JUNCTION     0.39     0.72     6.49     0  02:04        0.72
  WS02004410           JUNCTION     0.42     0.73     6.45     0  02:04        0.73
  WS02004411           JUNCTION     0.44     0.74     6.42     0  02:04        0.73
  WS02004412           JUNCTION     0.46     0.74     6.38     0  02:04        0.74
  WS02004413           JUNCTION     0.61     0.89     6.36     0  02:04        0.89
  WS02004405           JUNCTION     0.70     1.03     6.88     0  01:59        1.01
  WS02006109           JUNCTION     0.65     1.06     7.67     0  01:59        1.04
  WS02006110           JUNCTION     0.66     0.98     7.56     0  01:59        0.97
  WS02006111           JUNCTION     0.18     0.31     7.02     0  02:00        0.31
  WS02006112           JUNCTION     0.74     1.20     7.08     0  01:57        1.14
  WS02006113           JUNCTION     0.27     0.49     7.38     0  01:59        0.49
  WS02006115           JUNCTION     0.47     0.83     6.97     0  01:59        0.83
  WS02006116           JUNCTION     0.55     0.91     6.95     0  02:00        0.91
  WS02006230           JUNCTION     0.58     1.12     7.87     0  01:59        1.09
  WS02006231           JUNCTION     0.37     0.78     7.91     0  01:59        0.75
  WS02006232           JUNCTION     0.48     0.90     7.94     0  01:59        0.86
  WS02006234           JUNCTION     0.39     0.82     7.97     0  01:59        0.78
  WS02006235           JUNCTION     0.41     0.83     8.00     0  01:58        0.80
  WS02006238           JUNCTION     0.44     0.86     8.01     0  01:58        0.84
  WS02006240           JUNCTION     0.34     0.78     8.07     0  01:58        0.75
  WS02006242           JUNCTION     0.40     0.86     8.13     0  01:58        0.82
  WS02006243           JUNCTION     0.28     0.72     8.14     0  01:59        0.71
  WS02006245           JUNCTION     0.28     0.69     8.17     0  01:59        0.67
  WS02006247           JUNCTION     0.31     0.70     8.20     0  02:01        0.69
  WS02006248           JUNCTION     0.27     0.63     8.22     0  02:00        0.62
  WS02006249           JUNCTION     0.31     0.64     8.24     0  02:00        0.63
  WS02006239           JUNCTION     0.39     0.84     8.05     0  01:58        0.81
  WS02006251           JUNCTION     0.29     0.69     8.36     0  02:00        0.67
  WS02006252           JUNCTION     0.25     0.59     8.83     0  01:59        0.59
  WS02006253           JUNCTION     0.32     0.72     8.36     0  02:00        0.70
  WS02006256           JUNCTION     0.77     1.12     8.05     0  02:50        1.12
  WS02004138           JUNCTION     0.08     0.14     7.39     0  00:40        0.14
  WS02004407           JUNCTION     0.18     0.32     6.63     0  02:01        0.32
  WS02006228           JUNCTION     0.64     1.12     7.77     0  01:59        1.12
  WS02006229           JUNCTION     0.61     1.12     7.81     0  01:59        1.12
  WS02006280           JUNCTION     0.07     0.19     8.46     0  01:42        0.19
  WS02006284           JUNCTION     0.38     0.54     8.94     0  01:42        0.54
  WS02006287           JUNCTION     0.11     0.28     9.23     0  01:42        0.28
  WSF200               JUNCTION     0.17     0.32     5.55     0  02:05        0.32
  HS02004901           JUNCTION     0.13     0.28    10.10     0  01:39        0.28
  HS02004881           JUNCTION     0.01     0.03     9.06     0  01:43        0.03
  HS02004876           JUNCTION     0.05     0.12     9.15     0  01:43        0.12
  HS02004870           JUNCTION     0.02     0.06     9.35     0  01:43        0.06
  HS02004862           JUNCTION     0.02     0.07     9.45     0  01:44        0.07
  HS02004856           JUNCTION     0.08     0.12     9.55     0  01:44        0.12
  HS02004852           JUNCTION     0.01     0.04     9.56     0  01:52        0.04
  HS02004848           JUNCTION     0.01     0.04     9.64     0  01:51        0.04
  HS02004842           JUNCTION     0.34     0.37     9.64     0  01:51        0.37
  HS02004837           JUNCTION     0.03     0.06     9.64     0  01:51        0.06
  HS02004830           JUNCTION     0.04     0.08     9.55     0  01:45        0.08
  HS02004824           JUNCTION     0.03     0.06     9.46     0  01:54        0.06
  HS02004817           JUNCTION     0.45     0.59     9.43     0  01:43        0.59
  HS02004807           JUNCTION     0.13     0.26     9.43     0  01:43        0.26
  HS02004802           JUNCTION     0.17     0.30     9.42     0  01:43        0.29
  HS02004799           JUNCTION     0.13     0.33     9.54     0  01:40        0.33
  HS02004792           JUNCTION     0.04     0.14     9.66     0  01:40        0.14
  HS02004788           JUNCTION     0.03     0.10    10.00     0  01:40        0.10
  HS02004785           JUNCTION     0.05     0.17    10.07     0  01:40        0.17
  HS02004777           JUNCTION     0.15     0.30    10.10     0  01:39        0.30
  HS02004770           JUNCTION     0.12     0.27    10.10     0  01:39        0.27
  HS02004480           JUNCTION     0.09     0.27     9.51     0  01:41        0.27
  HS02004479           JUNCTION     0.13     0.30     9.51     0  01:40        0.30
  HS02004478           JUNCTION     0.07     0.18     9.41     0  01:42        0.18
  YS02001745           JUNCTION     0.72     0.88     8.40     0  02:43        0.88
  YS02001748           JUNCTION     1.12     2.27     9.35     0  02:05        1.32
  YS02001751           JUNCTION     1.30     2.20     9.08     0  02:01        1.53
  YS02001754           JUNCTION     1.55     2.20     8.81     0  02:05        1.81
  YS02001762           JUNCTION     1.74     2.03     8.43     0  02:30        2.01
  YS02001765           JUNCTION     1.70     1.98     8.43     0  03:09        1.96
  YS02001767           JUNCTION     1.66     1.93     8.42     0  02:48        1.92
  YS02001770           JUNCTION     1.66     1.95     8.44     0  02:02        1.90
  YS02001774           JUNCTION     1.73     2.01     8.44     0  02:02        1.97
  YS02001779           JUNCTION     1.48     1.68     8.37     0  02:01        1.68
  YS02001882           JUNCTION     0.52     1.38     8.10     0  02:30        1.38
  YS02001884           JUNCTION     0.62     1.48     8.10     0  02:30        1.48
  YS02001759           JUNCTION     1.78     2.07     8.43     0  03:09        2.06
  YS02001887           JUNCTION     0.70     1.57     8.11     0  02:30        1.56
  YS02001890           JUNCTION     0.73     1.59     8.09     0  02:30        1.58
  YS02001898           JUNCTION     0.50     1.34     8.07     0  02:30        1.34
  YS02001901           JUNCTION     0.61     1.47     8.07     0  02:30        1.46
  YS02001904           JUNCTION     0.59     1.43     8.06     0  02:30        1.43
  YS02001907           JUNCTION     0.92     1.77     8.06     0  02:31        1.76
  YS02001910           JUNCTION     0.71     1.56     8.07     0  02:29        1.56
  YS02001915           JUNCTION     0.51     1.36     8.08     0  02:29        1.35
  YS02001918           JUNCTION     0.27     1.00     8.06     0  02:30        1.00
  YS02001619           JUNCTION     1.27     1.61     8.54     0  02:01        1.47
  YS02001629           JUNCTION     1.61     1.85     8.40     0  02:02        1.84
  YS02001641           JUNCTION     1.71     1.94     8.37     0  02:18        1.93
  YS02001644           JUNCTION     1.72     1.92     8.35     0  02:02        1.92
  YS02001652           JUNCTION     1.56     2.12     8.72     0  02:03        1.98
  YS02001655           JUNCTION     1.33     2.14     8.99     0  02:03        1.85
  YS02001920           JUNCTION     0.36     1.05     8.06     0  02:30        1.05
  YS02001923           JUNCTION     0.20     0.80     8.06     0  02:30        0.80
  YS02001926           JUNCTION     0.24     0.62     8.07     0  02:30        0.62
  YS02001929           JUNCTION     0.12     0.37     8.07     0  02:29        0.37
  YS02001658           JUNCTION     1.06     2.28     9.42     0  02:03        1.66
  YS02001661           JUNCTION     0.83     2.03     9.43     0  02:22        1.79
  YS02001664           JUNCTION     0.37     0.57     8.50     0  02:20        0.56
  YS02001622           JUNCTION     1.29     1.62     8.52     0  02:02        1.49
  YS02001633           JUNCTION     1.70     1.95     8.41     0  02:09        1.94
  YS02001649           JUNCTION     1.75     2.05     8.44     0  02:03        2.05
  YS02001757           JUNCTION     1.88     2.18     8.44     0  02:44        2.17
  YS02001895           JUNCTION     0.49     1.34     8.09     0  02:29        1.34
  YS02001625           JUNCTION     1.57     1.78     8.38     0  02:01        1.78
  YS02163301           JUNCTION     1.64     1.91     8.43     0  02:08        1.87
  YS02163601           JUNCTION     1.76     1.99     8.39     0  02:18        1.98
  YS02164001           JUNCTION     1.69     1.92     8.38     0  02:18        1.91
  YS02001647           JUNCTION     1.55     1.81     8.42     0  02:23        1.79
  YSB1154              JUNCTION     0.27     0.45     9.51     0  01:40        0.45
  YSB6556              JUNCTION     0.16     0.34     9.51     0  01:40        0.34
  YSB1174              JUNCTION     0.22     0.40     9.51     0  01:41        0.40
  YSB1171              JUNCTION     0.42     0.61     9.51     0  01:40        0.61
  YS02006553           JUNCTION     0.92     1.76     8.05     0  02:30        1.76
  YS02006561           JUNCTION     0.31     0.93     7.59     0  02:30        0.93
  YS02006556           JUNCTION     0.89     1.72     8.03     0  02:28        1.71
  YS02006558           JUNCTION     0.93     1.75     8.02     0  02:29        1.75
  YS02001783           JUNCTION     0.62     1.95     8.09     0  01:50        1.34
  YS02001784           JUNCTION     0.65     1.58     7.65     0  01:50        1.30
  YS02001786           JUNCTION     0.62     1.64     7.67     0  01:50        1.17
  YS02001788           JUNCTION     0.61     1.71     7.69     0  01:50        1.06
  YS02001790           JUNCTION     0.83     1.96     7.60     0  01:49        1.24
  YS02001791           JUNCTION     0.90     1.56     7.03     0  01:50        1.25
  YS02001793           JUNCTION     1.38     2.14     6.97     0  01:46        1.80
  WS02004139           JUNCTION     0.41     0.58     5.49     0  02:10        0.57
  WSC                  OUTFALL      0.22     0.36     1.03     0  02:14        0.36
  3                    OUTFALL      0.03     0.11     6.11     0  02:50        0.11
  4                    OUTFALL      0.00     0.14     7.14     0  02:00        0.14
  5                    OUTFALL      0.00     0.00     5.00     0  00:00        0.00
  JK-storage           STORAGE      5.13     5.80     6.60     0  01:50        5.80
  CC-storage           STORAGE      1.12     1.39     8.39     0  02:43        1.39
  XR-storage           STORAGE      7.70     7.72     5.72     0  00:32        7.72
  
  
  *******************
  Node Inflow Summary
  *******************
  
  -------------------------------------------------------------------------------------------------
                                  Maximum  Maximum                  Lateral       Total        Flow
                                  Lateral    Total  Time of Max      Inflow      Inflow     Balance
                                   Inflow   Inflow   Occurrence      Volume      Volume       Error
  Node                 Type           LPS      LPS  days hr:min    10^6 ltr    10^6 ltr     Percent
  -------------------------------------------------------------------------------------------------
  WS02001211           JUNCTION      7.35   190.35     0  02:10       0.207        2.17       1.203
  WS02001212           JUNCTION      0.00   185.88     0  02:11           0        2.14       0.570
  WS02001213           JUNCTION      0.00   185.07     0  02:11           0        2.13       0.595
  WS02003069           JUNCTION      0.32   782.50     0  02:12     0.00902        7.89       0.139
  WS02003072           JUNCTION      0.00   782.17     0  02:13           0        7.88       0.199
  WS02003073           JUNCTION      1.82   783.69     0  02:13      0.0514        7.92       0.192
  WS02003060           JUNCTION     16.53   782.33     0  02:11       0.466        7.91       0.134
  WS02003066           JUNCTION      0.00   612.39     0  02:05           0        5.34       0.033
  WS02003059           JUNCTION      0.00   186.59     0  02:12           0        2.13       1.191
  WS02003067           JUNCTION      0.00   612.36     0  02:05           0        5.35       0.087
  WS02004401           JUNCTION      0.00   631.97     0  02:00           0        5.47       0.246
  WS02004402           JUNCTION      0.00   633.66     0  02:00           0        5.46       0.240
  WS02004403           JUNCTION      0.00   626.05     0  02:01           0        5.45       0.229
  WS02004404           JUNCTION      0.16   628.09     0  02:00     0.00457        5.44       0.181
  WS02004406           JUNCTION      0.00   627.62     0  02:00           0        5.42       0.441
  WS02004409           JUNCTION      0.00   620.51     0  02:01           0        5.39       0.089
  WS02004410           JUNCTION      0.00   616.28     0  02:01           0        5.39       0.116
  WS02004411           JUNCTION      0.00   613.26     0  02:04           0        5.38       0.133
  WS02004412           JUNCTION      0.00   612.52     0  02:04           0        5.37       0.167
  WS02004413           JUNCTION      0.00   612.64     0  02:04           0        5.36       0.287
  WS02004405           JUNCTION      0.04   626.12     0  02:00     0.00107        5.43       0.270
  WS02006109           JUNCTION      1.23   611.39     0  01:59      0.0347         5.5       0.304
  WS02006110           JUNCTION      0.00   611.50     0  01:59           0        5.48       0.314
  WS02006111           JUNCTION      0.00   640.69     0  01:59           0        5.46       0.056
  WS02006112           JUNCTION     14.90   624.38     0  02:00      0.0621        5.52       0.356
  WS02006113           JUNCTION      0.00   611.91     0  01:59           0        5.46       0.120
  WS02006115           JUNCTION      0.00   627.07     0  02:00           0         5.5       0.239
  WS02006116           JUNCTION      0.00   644.12     0  02:00           0        5.48       0.174
  WS02006230           JUNCTION     10.28   359.25     0  02:53        0.29        3.63       0.235
  WS02006231           JUNCTION      0.00   353.62     0  02:52           0        3.35       0.284
  WS02006232           JUNCTION      0.00   354.36     0  02:51           0        3.36       0.411
  WS02006234           JUNCTION      0.00   361.49     0  02:52           0        3.37       0.151
  WS02006235           JUNCTION      0.00   372.00     0  02:51           0        3.44       0.291
  WS02006238           JUNCTION      0.00   285.29     0  02:51           0        2.54       0.164
  WS02006240           JUNCTION      0.00   313.84     0  02:51           0        2.49       0.393
  WS02006242           JUNCTION      0.00   326.95     0  02:51           0        2.48       0.562
  WS02006243           JUNCTION      0.00   340.46     0  02:51           0        2.47       0.083
  WS02006245           JUNCTION      0.00   349.04     0  02:50           0        2.48       0.734
  WS02006247           JUNCTION      0.00   356.43     0  02:50           0        2.49       0.325
  WS02006248           JUNCTION      0.00   362.45     0  02:50           0        2.49       0.029
  WS02006249           JUNCTION      0.00   459.33     0  02:00           0        2.57       0.603
  WS02006239           JUNCTION      0.00   298.07     0  02:51           0        2.51       0.043
  WS02006251           JUNCTION      0.08   457.93     0  02:00     0.00217         2.6       0.301
  WS02006252           JUNCTION      0.00   399.99     0  02:50           0        2.22       0.022
  WS02006253           JUNCTION      2.03    76.41     0  01:43     0.00803       0.381       1.056
  WS02006256           JUNCTION      0.00   300.00     0  06:20           0        1.62       0.147
  WS02004138           JUNCTION      0.00   189.98     0  04:50           0        1.97       0.030
  WS02004407           JUNCTION      0.00   623.21     0  02:00           0        5.39       0.047
  WS02006228           JUNCTION      0.00   610.32     0  01:59           0        5.48       0.235
  WS02006229           JUNCTION      0.00   613.45     0  01:59           0        5.49       0.211
  WS02006280           JUNCTION      0.00   366.29     0  01:42           0        1.87       0.003
  WS02006284           JUNCTION      0.10   366.32     0  01:42      0.0027        1.87       0.028
  WS02006287           JUNCTION      0.00   366.23     0  01:42           0        1.87       0.038
  WSF200               JUNCTION      0.00   612.36     0  02:05           0        5.34       0.019
  HS02004901           JUNCTION     18.12    18.12     0  01:36      0.0747       0.075       2.400
  HS02004881           JUNCTION      7.67    74.62     0  01:43      0.0326       0.352       0.079
  HS02004876           JUNCTION     13.40    67.34     0  01:43      0.0628        0.32       0.169
  HS02004870           JUNCTION     14.05    54.07     0  01:43      0.0618       0.257       0.041
  HS02004862           JUNCTION     12.60    40.56     0  01:44      0.0678       0.196       0.086
  HS02004856           JUNCTION     10.50    27.98     0  01:43      0.0465       0.129       1.124
  HS02004852           JUNCTION      0.00    17.93     0  01:51           0       0.083       0.063
  HS02004848           JUNCTION     27.80    27.80     0  01:53       0.149       0.149       0.029
  HS02004842           JUNCTION      0.00    10.09     0  01:58           0      0.0794      19.593
  HS02004837           JUNCTION     29.79    38.22     0  01:51       0.287       0.353       0.222
  HS02004830           JUNCTION      0.15    38.36     0  01:51     0.00423       0.344       0.360
  HS02004824           JUNCTION     33.49    71.74     0  01:54       0.195       0.538       0.100
  HS02004817           JUNCTION      0.60    72.33     0  01:54      0.0169       0.554       3.102
  HS02004807           JUNCTION     26.14    95.63     0  01:52       0.114       0.651       0.672
  HS02004802           JUNCTION      0.00    95.92     0  01:53           0       0.649       0.612
  HS02004799           JUNCTION     20.64   230.91     0  01:40      0.0921        1.05       0.259
  HS02004792           JUNCTION     88.99   210.34     0  01:39       0.391       0.955       0.042
  HS02004788           JUNCTION     29.98   122.05     0  01:40       0.175       0.565       0.068
  HS02004785           JUNCTION      0.15    92.14     0  01:39     0.00423       0.391       0.125
  HS02004777           JUNCTION      0.03    92.19     0  01:38    0.000846       0.392       1.341
  HS02004770           JUNCTION     74.74    92.54     0  01:38        0.32       0.393       0.792
  HS02004480           JUNCTION      0.00   273.97     0  01:41           0        1.24       0.088
  HS02004479           JUNCTION      0.00    43.17     0  01:41           0       0.201       0.363
  HS02004478           JUNCTION      0.00   366.17     0  01:42           0        1.87       0.020
  YS02001745           JUNCTION    221.95   446.09     0  02:04        2.35        2.36       0.480
  YS02001748           JUNCTION      0.04   617.85     0  02:05     0.00127        2.36       0.928
  YS02001751           JUNCTION      0.01   357.13     0  02:00     0.00031        2.31       1.000
  YS02001754           JUNCTION      0.26   247.28     0  02:05     0.00733         2.3       1.088
  YS02001762           JUNCTION      0.00   278.35     0  02:10           0        1.64       1.288
  YS02001765           JUNCTION      0.00   276.40     0  02:10           0        1.65       1.497
  YS02001767           JUNCTION      0.54   274.81     0  02:10      0.0151        1.67       2.169
  YS02001770           JUNCTION    273.83   362.65     0  02:48        2.63         2.8       1.133
  YS02001774           JUNCTION      0.00   362.96     0  02:48           0        1.29       1.947
  YS02001779           JUNCTION      0.01   363.13     0  02:48    0.000141        1.26       1.251
  YS02001882           JUNCTION      0.00    17.81     0  01:54           0      0.0146      16.571
  YS02001884           JUNCTION      0.00    32.51     0  01:53           0      0.0506      12.887
  YS02001759           JUNCTION    262.15   538.80     0  02:10        2.42        3.87       0.593
  YS02001887           JUNCTION    333.12   337.01     0  02:10        2.79        2.82       0.287
  YS02001890           JUNCTION      0.00   337.91     0  02:08           0        2.77       0.317
  YS02001898           JUNCTION      0.00   339.18     0  02:10           0        2.76       0.097
  YS02001901           JUNCTION      0.00   338.55     0  02:10           0        2.76       0.236
  YS02001904           JUNCTION      0.00   337.76     0  02:10           0        2.76       0.215
  YS02001907           JUNCTION      0.00   621.68     0  02:31           0        6.14       0.385
  YS02001910           JUNCTION      0.00   319.89     0  03:05           0        3.39       0.334
  YS02001915           JUNCTION    195.26   316.23     0  03:03        1.97         3.4       0.164
  YS02001918           JUNCTION      0.00   131.76     0  03:03           0        1.43       0.123
  YS02001619           JUNCTION    191.04   191.04     0  02:29        1.95        1.95       0.615
  YS02001629           JUNCTION      0.00   209.80     0  01:47           0        1.78       1.615
  YS02001641           JUNCTION      0.00   411.55     0  02:10           0           4       0.527
  YS02001644           JUNCTION    211.51  1069.73     0  02:46        2.26        9.63       0.280
  YS02001652           JUNCTION      0.00   303.39     0  02:03           0        2.03       1.120
  YS02001655           JUNCTION      0.15   358.34     0  01:55     0.00434        2.06       1.237
  YS02001920           JUNCTION      2.87   124.22     0  02:53      0.0809        1.44       0.197
  YS02001923           JUNCTION      0.04   112.71     0  02:52     0.00106        1.36       0.054
  YS02001926           JUNCTION      0.05   112.20     0  02:53     0.00147        1.36       0.220
  YS02001929           JUNCTION    105.11   105.11     0  02:59        1.36        1.36       0.037
  YS02001658           JUNCTION      0.00   590.85     0  02:02           0        2.08       1.175
  YS02001661           JUNCTION      0.00   637.98     0  02:21           0        2.37      -0.182
  YS02001664           JUNCTION    239.63   370.24     0  02:20        2.08        2.37       0.274
  YS02001622           JUNCTION      0.00   191.83     0  02:30           0        1.94       1.665
  YS02001633           JUNCTION    215.43   403.27     0  02:10        2.33        4.06       0.790
  YS02001649           JUNCTION      0.00   845.50     0  02:17           0        5.81       0.639
  YS02001757           JUNCTION      0.00  1571.46     0  02:17           0        8.46       1.099
  YS02001895           JUNCTION      0.00   338.70     0  02:08           0        2.77       0.179
  YS02001625           JUNCTION      0.00   209.00     0  01:47           0        1.91       2.086
  YS02163301           JUNCTION      0.00   208.35     0  02:02           0        1.77       1.362
  YS02163601           JUNCTION      0.11   405.73     0  02:10      0.0031        4.01       0.747
  YS02164001           JUNCTION      0.00   407.75     0  02:10           0           4       0.502
  YS02001647           JUNCTION      0.00   611.88     0  02:11           0        5.02       0.563
  YSB1154              JUNCTION     23.84    23.84     0  01:41       0.112       0.113       1.297
  YSB6556              JUNCTION      0.00    24.02     0  01:42           0       0.113       1.116
  YSB1174              JUNCTION     19.99    19.99     0  01:36       0.081      0.0815       1.596
  YSB1171              JUNCTION      0.00    43.61     0  01:40           0         0.2       3.262
  YS02006553           JUNCTION      0.00   621.36     0  02:33           0        6.13       0.244
  YS02006561           JUNCTION      0.00   900.46     0  02:31           0        8.64       0.007
  YS02006556           JUNCTION      0.00   620.86     0  02:33           0        6.14       0.178
  YS02006558           JUNCTION    286.64   901.73     0  02:30        2.56        8.67       0.058
  YS02001783           JUNCTION      0.00   901.06     0  02:31           0        8.64       0.084
  YS02001784           JUNCTION      1.06   902.16     0  02:31      0.0299        8.66       0.126
  YS02001786           JUNCTION      0.06   902.21     0  02:31     0.00159        8.65       0.158
  YS02001788           JUNCTION      0.07   902.14     0  02:31       0.002        8.64       0.159
  YS02001790           JUNCTION      0.15   902.63     0  02:31     0.00437        8.63       0.197
  YS02001791           JUNCTION      0.00   902.27     0  02:31           0        8.61       0.172
  YS02001793           JUNCTION      0.00   902.61     0  02:31           0         8.6       0.188
  WS02004139           JUNCTION      0.32   189.46     0  00:40     0.00905        1.98       1.062
  WSC                  OUTFALL       0.00   783.27     0  02:14           0         7.9       0.000
  3                    OUTFALL       0.00   193.50     0  02:50           0       0.675       0.000
  4                    OUTFALL       0.00   181.06     0  02:00           0      0.0624       0.000
  5                    OUTFALL       0.00     0.00     0  00:00           0           0       0.000 ltr
  JK-storage           STORAGE       0.00   937.04     0  01:46           0        8.74       0.230
  CC-storage           STORAGE       0.00  1571.75     0  02:17           0        6.16       1.052
  XR-storage           STORAGE     560.10   560.10     0  02:30        9.63        10.2       0.002
  
  
  **********************
  Node Surcharge Summary
  **********************
  
  Surcharging occurs when water rises above the top of the highest conduit.
  ---------------------------------------------------------------------
                                               Max. Height   Min. Depth
                                   Hours       Above Crown    Below Rim
  Node                 Type      Surcharged         Meters       Meters
  ---------------------------------------------------------------------
  WS02004404           JUNCTION        0.15          0.123        2.657
  WS02004406           JUNCTION        0.01          0.004        2.446
  WS02004405           JUNCTION        0.08          0.029        2.771
  WS02006109           JUNCTION        1.04          0.236        1.584
  WS02006110           JUNCTION        0.32          0.066        1.784
  WS02006112           JUNCTION        0.48          0.196        1.484
  WS02006230           JUNCTION        0.07          0.045        1.525
  WS02006231           JUNCTION        0.12          0.072        1.458
  WS02006232           JUNCTION        0.42          0.199        1.281
  WS02006234           JUNCTION        0.15          0.097        1.143
  WS02006235           JUNCTION        0.26          0.122        1.168
  WS02006238           JUNCTION        0.30          0.142        1.288
  WS02006240           JUNCTION        0.09          0.066        1.324
  WS02006242           JUNCTION        0.19          0.127        0.693
  WS02006243           JUNCTION        0.01          0.013        0.757
  WS02006239           JUNCTION        0.14          0.102        1.188
  WS02006252           JUNCTION        0.25          0.190        0.910
  WS02006228           JUNCTION        1.02          0.288        1.912
  YS02001748           JUNCTION        5.62          1.190        0.000
  YS02001751           JUNCTION        5.80          1.200        0.000
  YS02001754           JUNCTION        5.96          1.150        0.000
  YS02001762           JUNCTION        6.15          1.032        0.118
  YS02001765           JUNCTION        6.13          0.980        0.120
  YS02001767           JUNCTION        6.13          0.934        0.096
  YS02001770           JUNCTION        6.12          0.920        0.000
  YS02001774           JUNCTION        6.14          1.013        0.037
  YS02001779           JUNCTION        5.95          0.680        0.000
  YS02001882           JUNCTION        0.95          0.382        0.448
  YS02001884           JUNCTION        1.00          0.421        0.449
  YS02001759           JUNCTION        6.15          1.070        0.140
  YS02001887           JUNCTION        1.13          0.517        0.433
  YS02001890           JUNCTION        1.17          0.538        0.222
  YS02001898           JUNCTION        0.86          0.308        0.432
  YS02001901           JUNCTION        1.07          0.466        0.404
  YS02001904           JUNCTION        1.04          0.434        0.416
  YS02001907           JUNCTION        1.69          0.761        0.189
  YS02001910           JUNCTION        1.22          0.564        0.536
  YS02001915           JUNCTION        0.92          0.357        0.643
  YS02001619           JUNCTION        5.84          0.610        0.000
  YS02001629           JUNCTION        5.85          0.470        0.000
  YS02001641           JUNCTION        6.13          0.938        0.162
  YS02001644           JUNCTION        6.13          0.920        0.000
  YS02001652           JUNCTION        6.06          1.095        0.035
  YS02001655           JUNCTION        5.85          1.142        0.058
  YS02001920           JUNCTION        0.27          0.055        1.085
  YS02001658           JUNCTION        5.67          1.276        0.024
  YS02001661           JUNCTION        0.16          0.957        0.433
  YS02001622           JUNCTION        5.89          0.620        0.000
  YS02001633           JUNCTION        6.12          0.933        0.127
  YS02001649           JUNCTION        6.14          1.050        0.000
  YS02001757           JUNCTION        6.19          1.177        0.033
  YS02001895           JUNCTION        0.89          0.339        0.411
  YS02001625           JUNCTION        6.09          0.780        0.000
  YS02163301           JUNCTION        6.12          0.908        0.122
  YS02163601           JUNCTION        6.15          0.993        0.087
  YS02164001           JUNCTION        6.12          0.923        0.177
  YS02001647           JUNCTION        6.09          0.806        0.094
  YS02006553           JUNCTION        1.74          0.763        0.427
  YS02006561           JUNCTION        0.62          0.132        1.018
  YS02006556           JUNCTION        1.48          0.675        0.675
  YS02006558           JUNCTION        1.43          0.654        0.746
  YS02001783           JUNCTION        1.60          1.149        0.451
  YS02001784           JUNCTION        1.65          0.781        0.709
  YS02001786           JUNCTION        1.61          0.844        0.586
  YS02001788           JUNCTION        1.60          0.913        0.567
  YS02001790           JUNCTION        4.87          1.157        0.000
  YS02001791           JUNCTION        5.00          0.764        1.156
  YS02001793           JUNCTION        5.26          1.137        1.463
  
  
  *********************
  Node Flooding Summary
  *********************
  
  Flooding refers to all water that overflows a node, whether it ponds or not.
  --------------------------------------------------------------------------
                                                             Total   Maximum
                                 Maximum   Time of Max       Flood    Ponded
                        Hours       Rate    Occurrence      Volume     Depth
  Node                 Flooded       LPS   days hr:min    10^6 ltr    Meters
  --------------------------------------------------------------------------
  YS02001748              0.01    179.02      0  02:05       0.000     0.000
  YS02001751              0.01    153.89      0  02:01       0.000     0.000
  YS02001754              0.01     19.40      0  02:05       0.000     0.000
  YS02001770              0.01      5.17      0  02:02       0.000     0.000
  YS02001779              2.73    363.12      0  02:48       1.244     0.000
  YS02001619              0.01     30.20      0  02:03       0.000     0.000
  YS02001629              0.01     37.41      0  02:03       0.000     0.000
  YS02001644              5.15   1069.63      0  02:46       7.971     0.000
  YS02001622              0.01     18.92      0  02:04       0.000     0.000
  YS02001649              0.05     36.78      0  02:25       0.002     0.000
  YS02001625              0.90     50.17      0  02:31       0.105     0.000
  YS02001790              0.01     83.42      0  01:49       0.000     0.000
  JK-storage              4.46    902.52      0  02:31       6.801     0.000
  XR-storage              7.30    554.96      0  02:40       7.337     0.000
  
  
  **********************
  Storage Volume Summary
  **********************
  
  --------------------------------------------------------------------------------------------------
                         Average     Avg  Evap Exfil       Maximum     Max    Time of Max    Maximum
                          Volume    Pcnt  Pcnt  Pcnt        Volume    Pcnt     Occurrence    Outflow
  Storage Unit           1000 m3    Full  Loss  Loss       1000 m3    Full    days hr:min        LPS
  --------------------------------------------------------------------------------------------------
  JK-storage               0.258      88     0     0         0.291     100       0  01:50     300.00
  CC-storage               3.119      20     0     0         3.881      25       0  02:43     399.99
  XR-storage               0.924     100     0     0         0.926     100       0  00:32     189.98
  
  
  ***********************
  Outfall Loading Summary
  ***********************
  
  -----------------------------------------------------------
                         Flow       Avg       Max       Total
                         Freq      Flow      Flow      Volume
  Outfall Node           Pcnt       LPS       LPS    10^6 ltr
  -----------------------------------------------------------
  WSC                  100.00    322.84    783.27       7.901
  3                     36.22    106.71    193.50       0.675
  4                      7.19     54.29    181.06       0.062
  5                      0.00      0.00      0.00       0.000
  -----------------------------------------------------------
  System                35.85    483.84    783.27       8.638
  
  
  ********************
  Link Flow Summary
  ********************
  
  -----------------------------------------------------------------------------
                                 Maximum  Time of Max   Maximum    Max/    Max/
                                  |Flow|   Occurrence   |Veloc|    Full    Full
  Link                 Type          LPS  days hr:min     m/sec    Flow   Depth
  -----------------------------------------------------------------------------
  WS02003066WSF200     CONDUIT    612.36     0  02:05      2.90    0.10    0.24
  WS02006287WS02006284 CONDUIT    366.23     0  01:42      1.96    0.17    0.29
  WS02006284WS02006280 CONDUIT    366.29     0  01:42      2.20    0.15    0.26
  WS02006280WS02006229 CONDUIT    366.30     0  01:42      3.55    0.08    0.19
  WS02006229WS02006228 CONDUIT    610.32     0  01:59      1.21    2.02    1.00
  WS02006256WS02006235 CONDUIT    149.98     0  01:05      2.14    1.59    1.00
  WS02006253WS02006251 CONDUIT     83.99     0  02:01      0.60    0.25    0.98
  WS02006252WS02006251 CONDUIT    400.00     0  02:50      3.18    1.47    1.00
  WS02006251WS02006249 CONDUIT    459.33     0  02:00      1.22    1.32    0.95
  WS02006249WS02006248 CONDUIT    362.45     0  02:50      1.16    1.99    0.89
  WS02006248WS02006247 CONDUIT    356.43     0  02:50      1.13    0.78    0.94
  WS02006247WS02006245 CONDUIT    349.04     0  02:50      1.09    2.77    0.97
  WS02006245WS02006243 CONDUIT    340.46     0  02:51      1.11    1.01    0.99
  WS02006243WS02006242 CONDUIT    326.95     0  02:51      0.96    0.70    1.00
  WS02006242WS02006240 CONDUIT    313.84     0  02:51      0.86    1.25    1.00
  WS02006240WS02006239 CONDUIT    298.07     0  02:51      0.97    0.94    1.00
  WS02006239WS02006238 CONDUIT    285.29     0  02:51      0.82    0.91    1.00
  WS02006238WS02006235 CONDUIT    286.94     0  02:52      0.78    0.64    1.00
  WS02006235WS02006234 CONDUIT    361.49     0  02:52      0.99    3.81    1.00
  WS02006234WS02006232 CONDUIT    354.36     0  02:51      0.92    0.72    1.00
  WS02006232WS02006231 CONDUIT    353.62     0  02:52      0.95    0.74    1.00
  WS02006231WS02006230 CONDUIT    348.97     0  02:53      1.29    5.29    1.00
  WS02006230WS02006229 CONDUIT    358.15     0  02:54      0.93    7.97    1.00
  WS02006228WS02006109 CONDUIT    610.16     0  01:59      1.21    2.67    1.00
  WS02006116WS02004401 CONDUIT    631.97     0  02:00      0.84    0.87    0.92
  WS02006115WS02006116 CONDUIT    644.12     0  02:00      0.93    0.83    0.84
  WS02006113WS02006111 CONDUIT    640.69     0  01:59      2.58    0.77    0.50
  WS02006112WS02006115 CONDUIT    627.07     0  02:00      0.84    0.37    0.91
  WS02006111WS02006112 CONDUIT    613.35     0  02:00      1.67    0.29    0.69
  WS02006110WS02006113 CONDUIT    611.91     0  01:59      1.41    0.56    0.81
  WS02006109WS02006110 CONDUIT    611.50     0  01:59      1.22    1.18    1.00
  WS02004411WS02004412 CONDUIT    612.52     0  02:04      0.99    0.87    0.74
  WS02004401WS02004402 CONDUIT    633.66     0  02:00      0.83    0.76    0.93
  WS02004413WS02003067 CONDUIT    612.36     0  02:05      1.19    0.26    0.62
  WS02004412WS02004413 CONDUIT    612.64     0  02:04      0.89    0.41    0.81
  WS02004410WS02004411 CONDUIT    613.26     0  02:04      1.00    0.84    0.73
  WS02004409WS02004410 CONDUIT    616.28     0  02:01      1.02    0.80    0.72
  WS02004407WS02004409 CONDUIT    620.51     0  02:01      1.53    0.22    0.52
  WS02004406WS02004407 CONDUIT    623.21     0  02:00      1.14    0.28    0.66
  WS02004405WS02004406 CONDUIT    627.62     0  02:00      0.80    1.24    1.00
  WS02004404WS02004405 CONDUIT    626.08     0  02:00      0.80    6.13    1.00
  WS02004403WS02004404 CONDUIT    627.93     0  02:00      0.80    0.45    0.98
  WS02004402WS02004403 CONDUIT    626.05     0  02:01      0.81    0.90    0.95
  WS02004139WS02001211 CONDUIT    183.00     0  02:10      0.40    0.23    0.46
  WS02004138WS02004139 CONDUIT    189.14     0  00:40      1.02    0.04    0.33
  WS02003067WS02003066 CONDUIT    612.39     0  02:05      1.30    0.20    0.43
  WS02001213WS02003059 CONDUIT    186.59     0  02:12      0.44    0.31    0.68
  WS02001212WS02001213 CONDUIT    185.07     0  02:11      0.97    0.29    0.36
  WS02001211WS02001212 CONDUIT    185.88     0  02:11      0.50    0.14    0.51
  WS02003072WS02003073 CONDUIT    781.87     0  02:13      1.62    1.69    0.44
  WS02003069WS02003072 CONDUIT    782.17     0  02:13      1.53    0.38    0.46
  WS02003060WS02003069 CONDUIT    782.18     0  02:12      1.78    0.31    0.41
  WS02003059WS02003060 CONDUIT    188.25     0  02:12      0.60    0.12    0.59
  HS02004901HS02004770 CONDUIT     17.82     0  01:38      0.06    0.07    0.40
  HS02004876HS02004881 CONDUIT     67.34     0  01:43      0.89    0.72    0.11
  HS02004870HS02004876 CONDUIT     54.06     0  01:43      0.61    0.04    0.13
  HS02004842HS02004848 CONDUIT     10.09     0  01:58      0.05    0.01    0.30
  HS02004837HS02004842 CONDUIT     10.34     0  02:00      0.42    0.01    0.31
  HS02004830HS02004837 CONDUIT     38.21     0  01:51      0.54    0.04    0.10
  HS02004824HS02004830 CONDUIT     38.37     0  01:52      0.57    0.05    0.10
  HS02004817HS02004824 CONDUIT     71.73     0  01:54      0.22    0.03    0.46
  HS02004770HS02004777 CONDUIT     92.16     0  01:38      0.32    0.17    0.41
  HS02004799HS02004480 CONDUIT    230.86     0  01:40      0.78    0.29    0.42
  HS02004792HS02004799 CONDUIT    210.30     0  01:40      0.89    0.13    0.34
  HS02004788HS02004792 CONDUIT    122.01     0  01:40      1.02    0.08    0.17
  HS02004785HS02004788 CONDUIT     92.10     0  01:40      0.67    0.69    0.20
  HS02004777HS02004785 CONDUIT     91.99     0  01:39      0.39    0.11    0.34
  HS02004480HS02004478 CONDUIT    273.66     0  01:41      1.21    1.15    0.32
  HS02004479HS02004480 CONDUIT     43.48     0  01:42      0.30    0.04    0.41
  HS02004862HS02004870 CONDUIT     40.54     0  01:45      0.62    0.04    0.09
  HS02004848HS02004852 CONDUIT     17.93     0  01:51      0.42    0.02    0.06
  HS02004856HS02004862 CONDUIT     27.96     0  01:44      0.46    0.03    0.09
  HS02004852HS02004856 CONDUIT     17.92     0  01:52      0.22    0.02    0.12
  HS02004802HS02004478 CONDUIT     96.20     0  01:53      0.42    0.08    0.34
  HS02004478WS02006287 CONDUIT    366.23     0  01:42      1.67    0.10    0.24
  HS02004817HS02004807 CONDUIT     72.77     0  01:55      0.17    0.04    0.61
  HS02004807HS02004802 CONDUIT     95.92     0  01:53      0.36    0.18    0.39
  YS02001759YS02001757 CONDUIT    540.29     0  02:10      0.69    0.38    1.00
  YS02001762YS02001759 CONDUIT    280.21     0  02:10      0.36    0.32    1.00
  YS02001765YS02001762 CONDUIT    278.35     0  02:10      0.35    0.26    1.00
  YS02001770YS02001767 CONDUIT    274.28     0  02:10      0.42    1.09    1.00
  YS02001774YS02001770 CONDUIT    362.96     0  02:48      0.46    0.23    1.00
  YS02001779YS02001774 CONDUIT    363.13     0  02:48      0.46    0.18    1.00
  YS02001649YS02001757 CONDUIT    845.83     0  02:17      1.08    0.51    1.00
  YS02001767YS02001765 CONDUIT    276.40     0  02:10      0.38    0.35    1.00
  YS02006561YS02001783 CONDUIT    901.06     0  02:31      2.13    0.47    1.00
  YS02001783YS02001784 CONDUIT    901.10     0  02:31      1.79    1.24    1.00
  YS02001784YS02001785 CONDUIT    902.16     0  02:31      1.79    2.10    1.00
  YS02001788YS02001790 CONDUIT    902.48     0  02:31      2.17    0.67    1.00
  YS02001790YS02001791 CONDUIT    902.27     0  02:31      2.55    0.98    1.00
  YS02001791YS02001793 CONDUIT    902.61     0  02:31      5.02    0.39    1.00
  YS02001910YS02001907 CONDUIT    319.87     0  03:05      0.49    0.18    1.00
  YS02001786YS02001788 CONDUIT    902.07     0  02:31      2.11    1.74    1.00
  YS02001915YS02001910 CONDUIT    319.89     0  03:05      0.58    0.16    1.00
  YS02001918YS02001915 CONDUIT    144.63     0  03:07      0.44    0.08    1.00
  YS02001923YS02001920 CONDUIT    121.35     0  02:53      0.67    0.05    0.90
  YS02001926YS02001923 CONDUIT    112.67     0  02:52      0.78    0.16    0.61
  YS02001929YS02001926 CONDUIT    112.15     0  02:53      0.83    0.05    0.49
  YS02001920YS02001918 CONDUIT    131.76     0  03:03      0.66    0.13    1.00
  YS02001629YS02163301 CONDUIT    208.35     0  02:02      0.27    0.26    1.00
  YS02001619YS02001622 CONDUIT    191.83     0  02:30      0.73    0.28    1.00
  YS02001622YS02001625 CONDUIT    209.00     0  01:47      0.36    0.11    1.00
  YS02001625YS02001629 CONDUIT    209.80     0  01:47      0.30    0.10    1.00
  YS02163301YS02001633 CONDUIT    208.44     0  02:02      0.27    0.20    1.00
  YS02163601YS02164001 CONDUIT    407.75     0  02:10      0.52    0.36    1.00
  YS02164001YS02001641 CONDUIT    411.55     0  02:10      0.52    0.56    1.00
  YS02001641YS02001644 CONDUIT    413.26     0  02:10      0.53    1.34    1.00
  YS02001647YS02001649 CONDUIT    613.16     0  02:11      0.78    0.32    1.00
  YS02006553YS02006556 CONDUIT    620.86     0  02:33      0.79    0.53    1.00
  YS02006556YS02006558 CONDUIT    621.66     0  02:33      0.79    0.49    1.00
  YSB6556YSB1171       CONDUIT     24.43     0  01:43      0.09    0.03    0.68
  YS02001907YS02006553 CONDUIT    621.36     0  02:33      0.69    0.73    1.00
  YS02006558YS02006561 CONDUIT    900.46     0  02:31      3.20    1.99    1.00
  YS02001633YS02163601 CONDUIT    405.62     0  02:10      0.52    0.43    1.00
  YS02001644YS02001647 CONDUIT    611.88     0  02:11      0.78    0.36    1.00
  YS02001745YS02001748 CONDUIT    617.81     0  02:05      1.64    0.24    0.94
  YS02001748YS02001751 CONDUIT    357.12     0  02:00      1.22    0.18    1.00
  YS02001751YS02001754 CONDUIT    247.02     0  02:05      1.05    0.12    1.00
  YS02001754YS02001757 CONDUIT    247.74     0  02:05      0.33    0.10    1.00
  YS02001882YS02001884 CONDUIT     19.91     0  01:53      0.14    0.02    1.00
  YS02001884YS02001887 CONDUIT     32.51     0  01:53      0.11    0.04    1.00
  YS02001890YS02001895 CONDUIT    338.70     0  02:08      0.48    0.16    1.00
  YS02001895YS02001898 CONDUIT    339.18     0  02:10      0.59    0.59    1.00
  YS02001898YS02001901 CONDUIT    338.55     0  02:10      0.51    0.22    1.00
  YS02001901YS02001904 CONDUIT    337.76     0  02:10      0.45    0.52    1.00
  YS02001904YS02001907 CONDUIT    335.31     0  02:10      0.43    0.12    1.00
  YS02001887YS02001890 CONDUIT    337.91     0  02:08      0.43    0.58    1.00
  YS02001652YS02001649 CONDUIT    303.02     0  02:03      0.61    0.15    1.00
  YS02001655YS02001652 CONDUIT    303.39     0  02:03      1.11    0.15    1.00
  YS02001658YS02001655 CONDUIT    358.19     0  01:55      1.42    0.15    1.00
  YS02001661YS02001658 CONDUIT    590.85     0  02:02      1.73    0.23    1.00
  YS02001664YS02001661 CONDUIT    637.98     0  02:21      1.64    0.20    0.72
  YSB1154YSB6556       CONDUIT     24.02     0  01:42      0.15    0.04    0.57
  YSB1174YSB1171       CONDUIT     20.02     0  01:36      0.07    0.03    0.68
  YSB1171HS02004479    CONDUIT     43.17     0  01:41      0.54    0.03    0.54
  HS02004881HS02006253 CONDUIT     74.62     0  01:43      2.14    0.01    0.30
  YS02001793JiankangQianchi CONDUIT    937.04     0  01:46      1.84    0.07    1.00
  YS02001757CaochengTiaoxuchi CONDUIT   1571.75     0  02:17      2.45    0.69    1.00
  WSF200WS02003060     CONDUIT    612.70     0  02:04      2.07    0.14    0.33
  1                    CONDUIT    783.27     0  02:14      3.11    0.27    0.36
  2                    CONDUIT    181.06     0  02:00      5.70    0.43    0.46
  3                    CONDUIT    193.50     0  02:50      7.78    0.31    0.38
  4                    CONDUIT      0.00     0  00:00      0.00    0.00    0.00
  CC-Pump-1            PUMP       200.00     0  07:40              1.00
  CC-Pump-2            PUMP       200.00     0  03:10              1.00
  JK-Pump-1            PUMP         0.00     0  00:00              0.00
  JK-Pump-2            PUMP       300.00     0  06:20              1.00
  XR-Pump-1            PUMP        95.00     0  00:50              1.00
  XR-Pump-2            PUMP        95.00     0  04:50              1.00
  XR-Pump-3            PUMP         0.00     0  00:00              0.00
  XR-Pump-4            PUMP        94.99     0  04:50              1.00
  
  
  ***************************
  Flow Classification Summary
  ***************************
  
  -------------------------------------------------------------------------------------
                      Adjusted    ---------- Fraction of Time in Flow Class ---------- 
                       /Actual         Up    Down  Sub   Sup   Up    Down  Norm  Inlet 
  Conduit               Length    Dry  Dry   Dry   Crit  Crit  Crit  Crit  Ltd   Ctrl  
  -------------------------------------------------------------------------------------
  WS02003066WSF200        1.00   0.08  0.00  0.00  0.00  0.92  0.00  0.00  0.71  0.00
  WS02006287WS02006284    1.00   0.02  0.04  0.00  0.55  0.39  0.00  0.00  0.72  0.00
  WS02006284WS02006280    1.00   0.03  0.00  0.00  0.00  0.00  0.00  0.97  0.00  0.00
  WS02006280WS02006229    1.00   0.04  0.00  0.00  0.00  0.00  0.00  0.96  0.00  0.00
  WS02006229WS02006228    1.00   0.00  0.00  0.00  1.00  0.00  0.00  0.00  0.00  0.00
  WS02006256WS02006235    1.00   0.03  0.00  0.00  0.97  0.00  0.00  0.00  0.00  0.00
  WS02006253WS02006251    1.00   0.01  0.02  0.00  0.96  0.00  0.01  0.00  0.00  0.00
  WS02006252WS02006251    1.00   0.11  0.00  0.00  0.00  0.00  0.89  0.00  0.00  0.00
  WS02006251WS02006249    1.00   0.00  0.00  0.00  1.00  0.00  0.00  0.00  0.34  0.00
  WS02006249WS02006248    1.00   0.00  0.00  0.00  0.79  0.00  0.21  0.00  0.00  0.00
  WS02006248WS02006247    1.00   0.00  0.00  0.00  0.98  0.00  0.00  0.01  0.27  0.00
  WS02006247WS02006245    1.00   0.01  0.00  0.00  0.95  0.00  0.00  0.05  0.00  0.00
  WS02006245WS02006243    1.00   0.01  0.00  0.00  0.90  0.00  0.00  0.09  0.02  0.00
  WS02006243WS02006242    1.00   0.01  0.00  0.00  0.96  0.00  0.00  0.03  0.25  0.00
  WS02006242WS02006240    1.00   0.01  0.02  0.00  0.96  0.00  0.01  0.00  0.00  0.00
  WS02006240WS02006239    1.00   0.03  0.00  0.00  0.94  0.00  0.00  0.03  0.01  0.00
  WS02006239WS02006238    1.00   0.03  0.00  0.00  0.97  0.00  0.00  0.00  0.00  0.00
  WS02006238WS02006235    1.00   0.03  0.00  0.00  0.97  0.00  0.00  0.00  0.00  0.00
  WS02006235WS02006234    1.00   0.03  0.00  0.00  0.95  0.00  0.02  0.00  0.00  0.00
  WS02006234WS02006232    1.00   0.03  0.00  0.00  0.97  0.00  0.00  0.00  0.00  0.00
  WS02006232WS02006231    1.00   0.03  0.00  0.00  0.97  0.00  0.00  0.00  0.00  0.00
  WS02006231WS02006230    1.00   0.03  0.00  0.00  0.27  0.00  0.69  0.00  0.00  0.00
  WS02006230WS02006229    1.00   0.00  0.00  0.00  0.99  0.00  0.00  0.01  0.00  0.00
  WS02006228WS02006109    1.00   0.00  0.00  0.00  1.00  0.00  0.00  0.00  0.00  0.00
  WS02006116WS02004401    1.00   0.03  0.00  0.00  0.97  0.00  0.00  0.00  0.00  0.00
  WS02006115WS02006116    1.00   0.03  0.00  0.00  0.94  0.00  0.00  0.03  0.00  0.00
  WS02006113WS02006111    1.00   0.01  0.00  0.00  0.01  0.98  0.00  0.00  0.19  0.00
  WS02006112WS02006115    1.00   0.02  0.01  0.00  0.97  0.00  0.00  0.00  0.00  0.00
  WS02006111WS02006112    1.00   0.02  0.00  0.00  0.98  0.00  0.00  0.00  0.91  0.00
  WS02006110WS02006113    1.00   0.00  0.01  0.00  0.99  0.00  0.00  0.00  0.00  0.00
  WS02006109WS02006110    1.00   0.00  0.00  0.00  0.99  0.00  0.00  0.00  0.00  0.00
  WS02004411WS02004412    1.00   0.07  0.00  0.00  0.93  0.00  0.00  0.00  0.00  0.00
  WS02004401WS02004402    1.00   0.03  0.00  0.00  0.97  0.00  0.00  0.00  0.02  0.00
  WS02004413WS02003067    1.00   0.07  0.01  0.00  0.00  0.00  0.92  0.00  0.00  0.00
  WS02004412WS02004413    1.00   0.07  0.00  0.00  0.93  0.00  0.00  0.00  0.00  0.00
  WS02004410WS02004411    1.00   0.06  0.00  0.00  0.94  0.00  0.00  0.00  0.00  0.00
  WS02004409WS02004410    1.00   0.06  0.00  0.00  0.94  0.00  0.00  0.00  0.00  0.00
  WS02004407WS02004409    1.00   0.06  0.00  0.00  0.93  0.01  0.00  0.00  0.82  0.00
  WS02004406WS02004407    1.00   0.00  0.06  0.00  0.94  0.00  0.00  0.00  0.00  0.00
  WS02004405WS02004406    1.00   0.00  0.00  0.00  1.00  0.00  0.00  0.00  0.04  0.00
  WS02004404WS02004405    1.00   0.00  0.00  0.00  1.00  0.00  0.00  0.00  0.00  0.00
  WS02004403WS02004404    1.00   0.00  0.03  0.00  0.97  0.00  0.00  0.00  0.04  0.00
  WS02004402WS02004403    1.00   0.03  0.00  0.00  0.97  0.00  0.00  0.00  0.00  0.00
  WS02004139WS02001211    1.00   0.00  0.00  0.00  1.00  0.00  0.00  0.00  0.00  0.00
  WS02004138WS02004139    1.00   0.00  0.00  0.00  0.99  0.00  0.00  0.00  0.98  0.00
  WS02003067WS02003066    1.00   0.08  0.00  0.00  0.92  0.00  0.00  0.00  0.00  0.00
  WS02001213WS02003059    1.00   0.00  0.00  0.00  1.00  0.00  0.00  0.00  0.00  0.00
  WS02001212WS02001213    1.00   0.01  0.00  0.00  0.48  0.00  0.51  0.00  0.00  0.00
  WS02001211WS02001212    1.00   0.00  0.01  0.00  0.99  0.00  0.00  0.00  0.00  0.00
  WS02003072WS02003073    1.00   0.00  0.00  0.00  0.00  0.00  0.00  1.00  0.00  0.00
  WS02003069WS02003072    1.00   0.00  0.00  0.00  1.00  0.00  0.00  0.00  0.72  0.00
  WS02003060WS02003069    1.00   0.00  0.00  0.00  0.98  0.02  0.00  0.00  0.50  0.00
  WS02003059WS02003060    1.00   0.00  0.00  0.00  1.00  0.00  0.00  0.00  0.04  0.00
  HS02004901HS02004770    1.00   0.03  0.00  0.00  0.97  0.00  0.00  0.00  0.00  0.00
  HS02004876HS02004881    1.00   0.00  0.00  0.00  0.90  0.09  0.00  0.00  0.00  0.00
  HS02004870HS02004876    1.00   0.00  0.00  0.00  1.00  0.00  0.00  0.00  0.95  0.00
  HS02004842HS02004848    1.00   0.00  0.03  0.00  0.97  0.00  0.00  0.00  0.59  0.00
  HS02004837HS02004842    1.00   0.00  0.00  0.00  1.00  0.00  0.00  0.00  0.11  0.00
  HS02004830HS02004837    1.00   0.00  0.00  0.00  1.00  0.00  0.00  0.00  0.99  0.00
  HS02004824HS02004830    1.00   0.00  0.00  0.00  1.00  0.00  0.00  0.00  0.00  0.00
  HS02004817HS02004824    1.00   0.00  0.00  0.00  1.00  0.00  0.00  0.00  1.00  0.00
  HS02004770HS02004777    1.00   0.00  0.03  0.00  0.97  0.00  0.00  0.00  0.02  0.00
  HS02004799HS02004480    1.00   0.00  0.01  0.00  0.94  0.00  0.05  0.00  0.00  0.00
  HS02004792HS02004799    1.00   0.00  0.00  0.00  1.00  0.00  0.00  0.00  0.98  0.00
  HS02004788HS02004792    1.00   0.00  0.00  0.00  1.00  0.00  0.00  0.00  0.98  0.00
  HS02004785HS02004788    1.00   0.00  0.00  0.00  1.00  0.00  0.00  0.00  0.00  0.00
  HS02004777HS02004785    1.00   0.00  0.00  0.00  1.00  0.00  0.00  0.00  0.12  0.00
  HS02004480HS02004478    1.00   0.03  0.00  0.00  0.59  0.00  0.00  0.38  0.00  0.00
  HS02004479HS02004480    1.00   0.01  0.00  0.00  0.99  0.00  0.00  0.00  0.11  0.00
  HS02004862HS02004870    1.00   0.00  0.00  0.00  1.00  0.00  0.00  0.00  0.03  0.00
  HS02004848HS02004852    1.00   0.03  0.00  0.00  0.97  0.00  0.00  0.00  0.78  0.00
  HS02004856HS02004862    1.00   0.00  0.06  0.00  0.94  0.00  0.00  0.00  0.83  0.00
  HS02004852HS02004856    1.00   0.03  0.00  0.00  0.97  0.00  0.00  0.00  0.86  0.00
  HS02004802HS02004478    1.00   0.03  0.00  0.00  0.97  0.00  0.00  0.00  0.02  0.00
  HS02004478WS02006287    1.00   0.06  0.00  0.00  0.72  0.22  0.00  0.00  0.69  0.00
  HS02004817HS02004807    1.00   0.00  0.03  0.00  0.97  0.00  0.00  0.00  0.01  0.00
  HS02004807HS02004802    1.00   0.03  0.00  0.00  0.95  0.00  0.00  0.02  0.00  0.00
  YS02001759YS02001757    1.00   0.00  0.00  0.00  1.00  0.00  0.00  0.00  0.16  0.00
  YS02001762YS02001759    1.00   0.00  0.00  0.00  1.00  0.00  0.00  0.00  0.03  0.00
  YS02001765YS02001762    1.00   0.00  0.00  0.00  1.00  0.00  0.00  0.00  0.13  0.00
  YS02001770YS02001767    1.00   0.00  0.00  0.00  1.00  0.00  0.00  0.00  0.00  0.00
  YS02001774YS02001770    1.00   0.00  0.03  0.00  0.97  0.00  0.00  0.00  0.03  0.00
  YS02001779YS02001774    1.00   0.00  0.00  0.00  1.00  0.00  0.00  0.00  0.17  0.00
  YS02001649YS02001757    1.00   0.00  0.00  0.00  1.00  0.00  0.00  0.00  0.16  0.00
  YS02001767YS02001765    1.00   0.00  0.00  0.00  1.00  0.00  0.00  0.00  0.00  0.00
  YS02006561YS02001783    1.00   0.07  0.00  0.00  0.73  0.20  0.00  0.00  0.58  0.00
  YS02001783YS02001784    1.00   0.00  0.07  0.00  0.93  0.00  0.00  0.00  0.00  0.00
  YS02001784YS02001785    1.00   0.00  0.00  0.00  1.00  0.00  0.00  0.00  0.17  0.00
  YS02001788YS02001790    1.00   0.00  0.00  0.00  0.83  0.17  0.00  0.00  0.30  0.00
  YS02001790YS02001791    1.00   0.00  0.00  0.00  0.78  0.22  0.00  0.00  0.13  0.00
  YS02001791YS02001793    1.00   0.00  0.00  0.00  0.81  0.19  0.00  0.00  0.03  0.00
  YS02001910YS02001907    1.00   0.00  0.00  0.00  0.99  0.00  0.00  0.01  0.12  0.00
  YS02001786YS02001788    1.00   0.00  0.00  0.00  0.81  0.19  0.00  0.00  0.00  0.00
  YS02001915YS02001910    1.00   0.00  0.00  0.00  0.98  0.02  0.00  0.00  0.14  0.00
  YS02001918YS02001915    1.00   0.00  0.00  0.00  0.99  0.00  0.00  0.00  0.57  0.00
  YS02001923YS02001920    1.00   0.00  0.00  0.00  1.00  0.00  0.00  0.00  0.82  0.00
  YS02001926YS02001923    1.00   0.00  0.02  0.00  0.17  0.00  0.82  0.00  0.00  0.00
  YS02001929YS02001926    1.00   0.00  0.03  0.00  0.97  0.00  0.00  0.00  0.78  0.00
  YS02001920YS02001918    1.00   0.00  0.00  0.00  1.00  0.00  0.00  0.00  0.00  0.00
  YS02001629YS02163301    1.00   0.05  0.01  0.00  0.94  0.00  0.00  0.00  0.00  0.00
  YS02001619YS02001622    1.00   0.03  0.00  0.00  0.97  0.00  0.00  0.00  0.00  0.00
  YS02001622YS02001625    1.00   0.03  0.00  0.00  0.97  0.00  0.00  0.00  0.04  0.00
  YS02001625YS02001629    1.00   0.03  0.04  0.00  0.92  0.00  0.01  0.00  0.00  0.00
  YS02163301YS02001633    1.00   0.00  0.05  0.00  0.95  0.00  0.00  0.00  0.00  0.00
  YS02163601YS02164001    1.00   0.00  0.02  0.00  0.98  0.00  0.00  0.00  0.00  0.00
  YS02164001YS02001641    1.00   0.00  0.02  0.00  0.98  0.00  0.00  0.00  0.06  0.00
  YS02001641YS02001644    1.00   0.00  0.00  0.00  1.00  0.00  0.00  0.00  0.00  0.00
  YS02001647YS02001649    1.00   0.00  0.06  0.00  0.94  0.00  0.00  0.00  0.01  0.00
  YS02006553YS02006556    1.00   0.00  0.00  0.00  1.00  0.00  0.00  0.00  0.03  0.00
  YS02006556YS02006558    1.00   0.00  0.00  0.00  1.00  0.00  0.00  0.00  0.00  0.00
  YSB6556YSB1171          1.00   0.01  0.02  0.00  0.97  0.00  0.00  0.00  0.00  0.00
  YS02001907YS02006553    1.00   0.00  0.00  0.00  0.99  0.00  0.00  0.00  0.00  0.00
  YS02006558YS02006561    1.00   0.07  0.00  0.00  0.23  0.70  0.00  0.00  0.52  0.00
  YS02001633YS02163601    1.00   0.00  0.00  0.00  1.00  0.00  0.00  0.00  0.15  0.00
  YS02001644YS02001647    1.00   0.00  0.06  0.00  0.94  0.00  0.00  0.00  0.00  0.00
  YS02001745YS02001748    1.00   0.00  0.00  0.00  0.91  0.00  0.00  0.09  0.03  0.00
  YS02001748YS02001751    1.00   0.00  0.00  0.00  0.95  0.05  0.00  0.00  0.14  0.00
  YS02001751YS02001754    1.00   0.00  0.00  0.00  0.93  0.00  0.00  0.07  0.01  0.00
  YS02001754YS02001757    1.00   0.00  0.00  0.00  1.00  0.00  0.00  0.00  0.17  0.00
  YS02001882YS02001884    1.00   0.05  0.01  0.00  0.94  0.00  0.00  0.00  0.00  0.00
  YS02001884YS02001887    1.00   0.01  0.01  0.00  0.97  0.00  0.00  0.00  0.00  0.00
  YS02001890YS02001895    1.00   0.00  0.06  0.00  0.94  0.00  0.00  0.00  0.00  0.00
  YS02001895YS02001898    1.00   0.06  0.00  0.00  0.93  0.00  0.01  0.00  0.00  0.00
  YS02001898YS02001901    1.00   0.06  0.00  0.00  0.94  0.00  0.00  0.00  0.01  0.00
  YS02001901YS02001904    1.00   0.06  0.00  0.00  0.94  0.00  0.00  0.00  0.00  0.00
  YS02001904YS02001907    1.00   0.00  0.06  0.00  0.94  0.00  0.00  0.00  0.00  0.00
  YS02001887YS02001890    1.00   0.00  0.00  0.00  0.99  0.00  0.01  0.00  0.00  0.00
  YS02001652YS02001649    1.00   0.00  0.00  0.00  0.98  0.02  0.00  0.00  0.15  0.00
  YS02001655YS02001652    1.00   0.00  0.00  0.00  0.93  0.00  0.00  0.07  0.01  0.00
  YS02001658YS02001655    1.00   0.00  0.04  0.00  0.92  0.04  0.00  0.00  0.02  0.00
  YS02001661YS02001658    1.00   0.04  0.00  0.00  0.91  0.06  0.00  0.00  0.03  0.00
  YS02001664YS02001661    1.00   0.03  0.00  0.00  0.91  0.06  0.00  0.00  0.15  0.00
  YSB1154YSB6556          1.00   0.03  0.00  0.00  0.97  0.00  0.00  0.00  0.01  0.00
  YSB1174YSB1171          1.00   0.01  0.01  0.00  0.98  0.00  0.00  0.00  0.00  0.00
  YSB1171HS02004479       1.00   0.01  0.00  0.00  0.99  0.00  0.00  0.00  0.10  0.00
  HS02004881HS02006253    1.00   0.01  0.00  0.00  0.46  0.06  0.00  0.46  0.32  0.00
  YS02001793JiankangQianchi    1.00   0.00  0.00  0.00  1.00  0.00  0.00  0.00  0.28  0.00
  YS02001757CaochengTiaoxuchi    1.00   0.00  0.08  0.00  0.90  0.02  0.00  0.00  0.00  0.00
  WSF200WS02003060        1.00   0.00  0.08  0.00  0.28  0.64  0.00  0.00  0.34  0.00
  1                       1.00   0.00  0.00  0.00  0.00  1.00  0.00  0.00  0.25  0.00
  2                       1.00   0.93  0.00  0.00  0.00  0.07  0.00  0.00  0.02  0.00
  3                       1.00   0.64  0.00  0.00  0.00  0.36  0.00  0.00  0.11  0.00
  4                       1.00   1.00  0.00  0.00  0.00  0.00  0.00  0.00  0.00  0.00
  
  
  *************************
  Conduit Surcharge Summary
  *************************
  
  ----------------------------------------------------------------------------
                                                           Hours        Hours 
                         --------- Hours Full --------   Above Full   Capacity
  Conduit                Both Ends  Upstream  Dnstream   Normal Flow   Limited
  ----------------------------------------------------------------------------
  WS02006229WS02006228        1.02      1.05      1.02      1.69         1.02
  WS02006256WS02006235        4.64      4.64      6.82      1.80         0.01
  WS02006253WS02006251        0.01      0.01      0.02      0.01         0.01
  WS02006252WS02006251        0.09      0.09      0.25      0.21         0.01
  WS02006251WS02006249        0.01      0.01      0.01      0.16         0.01
  WS02006249WS02006248        0.01      0.01      0.01      1.73         0.01
  WS02006247WS02006245        0.01      0.01      0.01      2.71         0.01
  WS02006245WS02006243        0.01      0.01      0.01      0.01         0.01
  WS02006243WS02006242        0.03      0.03      0.19      0.01         0.01
  WS02006242WS02006240        0.09      0.09      0.25      0.27         0.01
  WS02006240WS02006239        0.11      0.11      0.14      0.01         0.01
  WS02006239WS02006238        0.27      0.27      0.30      0.01         0.01
  WS02006238WS02006235        0.29      0.29      0.34      0.01         0.01
  WS02006235WS02006234        0.15      0.15      0.26      4.41         0.01
  WS02006234WS02006232        0.23      0.23      0.42      0.01         0.01
  WS02006232WS02006231        0.12      0.12      0.42      0.01         0.01
  WS02006231WS02006230        0.07      0.07      0.14      4.95         0.01
  WS02006230WS02006229        1.19      1.48      1.19      5.72         1.18
  WS02006228WS02006109        1.04      1.12      1.04      2.90         1.04
  WS02006112WS02006115        0.01      0.01      0.48      0.01         0.01
  WS02006111WS02006112        0.01      0.01      1.76      0.01         0.01
  WS02006110WS02006113        0.01      0.01      1.09      0.01         0.01
  WS02006109WS02006110        0.32      0.32      1.13      0.33         0.01
  WS02004406WS02004407        0.01      0.01      0.01      0.01         0.01
  WS02004405WS02004406        0.01      0.08      0.01      0.42         0.01
  WS02004404WS02004405        0.08      0.15      0.08      5.26         0.08
  WS02004403WS02004404        0.01      0.01      0.15      0.01         0.01
  WS02003072WS02003073        0.01      0.01      0.01      1.04         0.01
  HS02004480HS02004478        0.01      0.01      0.01      0.41         0.01
  YS02001759YS02001757        6.15      6.15      6.19      0.01         0.01
  YS02001762YS02001759        6.15      6.15      6.15      0.01         0.01
  YS02001765YS02001762        6.13      6.13      6.15      0.01         0.01
  YS02001770YS02001767        6.13      6.13      6.13      0.38         0.72
  YS02001774YS02001770        6.12      6.12      6.14      0.01         0.01
  YS02001779YS02001774        5.95      5.95      6.14      0.01         0.01
  YS02001649YS02001757        6.14      6.14      6.19      0.01         0.01
  YS02001767YS02001765        6.13      6.13      6.13      0.01         0.01
  YS02006561YS02001783        0.62      0.62      1.60      0.01         0.01
  YS02001783YS02001784        1.60      1.60      1.65      1.27         1.23
  YS02001784YS02001785        1.61      1.65      1.61      2.23         1.60
  YS02001788YS02001790        1.60      1.60      4.87      0.01         0.01
  YS02001790YS02001791        4.87      4.87      5.00      0.01         0.04
  YS02001791YS02001793        5.00      5.00      5.34      0.01         0.01
  YS02001910YS02001907        1.22      1.22      1.69      0.01         0.01
  YS02001786YS02001788        1.59      1.61      1.60      1.84         1.59
  YS02001915YS02001910        0.92      0.92      1.22      0.01         0.01
  YS02001918YS02001915        0.01      0.01      0.92      0.01         0.01
  YS02001923YS02001920        0.01      0.01      0.27      0.01         0.01
  YS02001920YS02001918        0.01      0.01      0.27      0.01         0.01
  YS02001629YS02163301        6.10      6.10      6.11      0.01         0.01
  YS02001619YS02001622        5.84      5.84      5.89      0.01         0.01
  YS02001622YS02001625        5.89      5.89      6.09      0.01         0.01
  YS02001625YS02001629        5.85      5.85      6.09      0.01         0.01
  YS02163301YS02001633        6.11      6.11      6.12      0.01         0.01
  YS02163601YS02164001        6.12      6.12      6.15      0.01         0.01
  YS02164001YS02001641        6.12      6.12      6.13      0.01         0.03
  YS02001641YS02001644        6.13      6.13      6.13      1.39         1.34
  YS02001647YS02001649        6.09      6.09      6.14      0.01         0.01
  YS02006553YS02006556        1.48      1.48      1.74      0.01         0.01
  YS02006556YS02006558        1.60      1.60      1.84      0.01         0.01
  YS02001907YS02006553        2.26      2.26      2.42      0.01         0.01
  YS02006558YS02006561        1.08      1.43      1.08      2.09         1.08
  YS02001633YS02163601        6.12      6.12      6.15      0.01         0.01
  YS02001644YS02001647        6.09      6.09      6.13      0.01         0.01
  YS02001745YS02001748        0.01      0.01      5.62      0.01         0.01
  YS02001748YS02001751        5.70      5.70      5.80      0.01         0.01
  YS02001751YS02001754        5.80      5.80      5.96      0.01         0.01
  YS02001754YS02001757        6.07      6.07      6.19      0.01         0.01
  YS02001882YS02001884        0.94      0.94      1.00      0.01         0.01
  YS02001884YS02001887        1.09      1.09      1.13      0.01         0.01
  YS02001890YS02001895        0.89      0.89      1.25      0.01         0.01
  YS02001895YS02001898        0.86      0.86      0.89      0.01         0.01
  YS02001898YS02001901        0.90      0.90      1.07      0.01         0.01
  YS02001901YS02001904        1.04      1.04      1.07      0.01         0.01
  YS02001904YS02001907        1.04      1.04      1.78      0.01         0.01
  YS02001887YS02001890        1.17      1.17      1.20      0.01         0.01
  YS02001652YS02001649        6.09      6.09      6.14      0.01         0.01
  YS02001655YS02001652        5.85      5.85      6.06      0.01         0.01
  YS02001658YS02001655        5.67      5.67      5.85      0.01         0.01
  YS02001661YS02001658        0.14      0.14      5.67      0.01         0.01
  YS02001664YS02001661        0.01      0.01      0.84      0.01         0.01
  YS02001793JiankangQianchi        5.25      5.25      7.44      0.01         0.01
  YS02001757CaochengTiaoxuchi        5.50      5.50      6.19      0.01         0.01
  
  
  ***************
  Pumping Summary
  ***************
  
  ---------------------------------------------------------------------------------------------------------
                                                  Min       Avg       Max     Total     Power    % Time Off
                        Percent   Number of      Flow      Flow      Flow    Volume     Usage    Pump Curve
  Pump                 Utilized   Start-Ups       LPS       LPS       LPS  10^6 ltr     Kw-hr    Low   High
  ---------------------------------------------------------------------------------------------------------
  CC-Pump-1               25.52           5      0.00    119.57    200.00     0.780      0.92    0.0    3.2
  CC-Pump-2               42.54           5      0.00    133.26    200.00     1.440      1.18    0.0    1.9
  JK-Pump-1                0.00           0      0.00      0.00      0.00     0.000      0.00    0.0    0.0
  JK-Pump-2               34.03           6      0.00    196.66    300.00     1.620     10.45    0.0    0.0
  XR-Pump-1               70.21          10      0.00     64.58     95.00     1.225      5.57    0.0    0.0
  XR-Pump-2               14.89           2      0.00     56.28     95.00     0.228      1.02    0.0    0.0
  XR-Pump-3                0.00           0      0.00      0.00      0.00     0.000      0.00    0.0    0.0
  XR-Pump-4               38.30           8      0.00     45.02     94.99     0.513      2.28    0.0    0.0
  

  Analysis begun on:  Wed Jan  5 18:34:58 2022
  Analysis ended on:  Wed Jan  5 18:35:00 2022
  Total elapsed time: 00:00:02