
  EPA STORM WATER MANAGEMENT MODEL - VERSION 5.1 (Build 5.3.0.dev0)
  --------------------------------------------------------------

  WARNING 04: minimum elevation drop used for Conduit WS02004404WS02004405
  WARNING 03: negative offset ignored for Link YS02001904YS02001907
  
  *********************************************************
  NOTE: The summary statistics displayed in this report are
  based on results found at every computational time step,  
  not just on results from each reporting time step.
  *********************************************************
  
  ****************
  Analysis Options
  ****************
  Flow Units ............... LPS
  Process Models:
    Rainfall/Runoff ........ YES
    RDII ................... NO
    Snowmelt ............... NO
    Groundwater ............ NO
    Flow Routing ........... YES
    Ponding Allowed ........ NO
    Water Quality .......... NO
  Infiltration Method ...... HORTON
  Flow Routing Method ...... DYNWAVE
  Surcharge Method ......... EXTRAN
  Starting Date ............ 08/28/2015 08:00:00
  Ending Date .............. 08/28/2015 15:50:00
  Antecedent Dry Days ...... 8.0
  Report Time Step ......... 00:01:00
  Wet Time Step ............ 00:01:00
  Dry Time Step ............ 00:01:00
  Routing Time Step ........ 5.00 sec
  Variable Time Step ....... YES
  Maximum Trials ........... 8
  Number of Threads ........ 4
  Head Tolerance ........... 0.001500 m
  
  
  **************************        Volume         Depth
  Runoff Quantity Continuity     hectare-m            mm
  **************************     ---------       -------
  Total Precipitation ......         5.151        11.277
  Evaporation Loss .........         0.000         0.000
  Infiltration Loss ........         1.323         2.897
  Surface Runoff ...........         2.817         6.167
  Final Storage ............         1.011         2.215
  Continuity Error (%) .....        -0.015
  
  
  **************************        Volume        Volume
  Flow Routing Continuity        hectare-m      10^6 ltr
  **************************     ---------     ---------
  Dry Weather Inflow .......         0.616         6.165
  Wet Weather Inflow .......         2.816        28.156
  Groundwater Inflow .......         0.000         0.000
  RDII Inflow ..............         0.000         0.000
  External Inflow ..........         0.102         1.024
  External Outflow .........         1.829        18.287
  Flooding Loss ............         1.198        11.982
  Evaporation Loss .........         0.000         0.000
  Exfiltration Loss ........         0.000         0.000
  Initial Stored Volume ....         0.076         0.761
  Final Stored Volume ......         0.596         5.959
  Continuity Error (%) .....        -0.337
  
  
  *************************
  Highest Continuity Errors
  *************************
  Node HS02004842 (17.04%)
  Node YS02001884 (10.82%)
  Node YS02001774 (4.23%)
  Node YSB1171 (3.39%)
  Node HS02004817 (3.15%)
  
  
  ***************************
  Time-Step Critical Elements
  ***************************
  Link WS02006252WS02006251 (52.55%)
  Link 3 (38.49%)
  Link WS02006238WS02006235 (1.73%)
  Link YS02001793JiankangQianchi (1.67%)
  Link WS02006280WS02006229 (1.27%)
  
  
  ********************************
  Highest Flow Instability Indexes
  ********************************
  Link YS02001619YS02001622 (42)
  Link YS02163301YS02001633 (42)
  Link YS02163601YS02164001 (41)
  Link YS02001629YS02163301 (41)
  Link YS02164001YS02001641 (38)
  
  
  *************************
  Routing Time Step Summary
  *************************
  Minimum Time Step           :     0.50 sec
  Average Time Step           :     0.89 sec
  Maximum Time Step           :     5.00 sec
  Percent in Steady State     :    -0.00
  Average Iterations per Step :     4.78
  Percent Not Converging      :    23.67
  
  
  ***************************
  Subcatchment Runoff Summary
  ***************************
  
  ------------------------------------------------------------------------------------------------------------------------------
                            Total      Total      Total      Total     Imperv       Perv      Total       Total     Peak  Runoff
                           Precip      Runon       Evap      Infil     Runoff     Runoff     Runoff      Runoff   Runoff   Coeff
  Subcatchment                 mm         mm         mm         mm         mm         mm         mm    10^6 ltr      LPS
  ------------------------------------------------------------------------------------------------------------------------------
  sub0                      11.28       0.00       0.00       0.79       9.22       0.00       9.22        0.01     1.44   0.818
  sub1                      11.28       0.00       0.00       1.24       8.78       0.00       8.78        0.06    10.11   0.778
  sub2                      11.28       0.00       0.00       4.17       6.20       0.00       6.20        0.06     9.79   0.549
  sub3                      11.28       0.00       0.00       4.17       6.16       0.00       6.16        0.14    22.44   0.546
  sub4                      11.28       0.00       0.00       1.24       8.63       0.00       8.63        0.18    27.35   0.765
  sub5                      11.28       0.00       0.00       0.79       9.17       0.00       9.17        0.10    18.00   0.813
  sub7                      11.28       0.00       0.00       1.01       9.01       0.00       9.01        0.03     5.34   0.799
  sub8                      11.28       0.00       0.00       1.01       9.00       0.00       9.00        0.06    10.08   0.798
  sub9                      11.28       0.00       0.00       1.01       8.99       0.00       8.99        0.04     7.58   0.798
  sub10                     11.28       0.00       0.00       0.90       9.08       0.00       9.08        0.10    17.43   0.805
  sub11                     11.28       0.00       0.00       0.90       9.10       0.00       9.10        0.11    18.56   0.807
  sub12                     11.28       0.00       0.00       1.47       8.62       0.00       8.62        0.08    13.79   0.765
  sub14                     11.28       0.00       0.00       1.01       8.99       0.00       8.99        0.09    14.98   0.797
  sub15                     11.28       0.00       0.00       3.38       6.91       0.00       6.91        0.12    20.76   0.613
  sub16                     11.28       0.00       0.00       3.72       6.64       0.00       6.64        0.07    12.34   0.589
  sub17                     11.28       0.00       0.00       3.61       6.73       0.00       6.73        0.06    10.18   0.597
  sub22                     11.28       0.00       0.00       4.85       5.64       0.00       5.64        0.36    62.58   0.500
  sub23                     11.28       0.00       0.00       4.17       6.23       0.00       6.23        0.30    52.29   0.553
  sub60                     11.28       0.00       0.00       1.35       7.08       0.00       7.08        2.14   214.31   0.627
  sub61                     11.28       0.00       0.00       1.92       7.22       0.00       7.22        2.23   246.69   0.640
  sub62                     11.28       0.00       0.00       0.90       7.84       0.00       7.84        2.41   259.66   0.695
  sub63                     11.28       0.00       0.00       3.27       6.33       0.00       6.33        1.92   219.77   0.561
  sub64                     11.28       0.00       0.00       1.69       6.79       0.00       6.79        2.06   204.52   0.602
  sub65                     11.28       0.00       0.00       1.47       6.90       0.00       6.90        2.12   208.50   0.612
  sub66                     11.28       0.00       0.00       3.27       5.83       0.00       5.83        1.79   183.42   0.517
  sub67                     11.28       0.00       0.00       0.90       8.30       0.00       8.30        2.56   301.39   0.736
  sub68                     11.28       0.00       0.00       1.58       7.60       0.00       7.60        2.34   264.96   0.674
  sub69                     11.28       0.00       0.00       1.69       7.90       0.00       7.90        1.85   237.25   0.701
  sub70                     11.28       8.07       0.00       6.54      10.49       0.03      10.52        2.41   252.63   0.544
  sub71                     11.28       0.00       0.00       0.90       7.63       0.00       7.63        1.80   186.96   0.676
  sub72                     11.28       0.00       0.00       0.79       6.02       0.00       6.02        1.23   100.40   0.534
  sub73                     11.28      10.24       0.00       7.30      11.40       0.02      11.42        2.68   238.40   0.531
  sub74                     11.28       0.00       0.00       8.46       2.36       0.00       2.36        0.94   126.51   0.209
  
  
  ******************
  Node Depth Summary
  ******************
  
  ---------------------------------------------------------------------------------
                                 Average  Maximum  Maximum  Time of Max    Reported
                                   Depth    Depth      HGL   Occurrence   Max Depth
  Node                 Type       Meters   Meters   Meters  days hr:min      Meters
  ---------------------------------------------------------------------------------
  WS02001211           JUNCTION     0.63     0.71     5.55     0  06:50        0.71
  WS02001212           JUNCTION     0.36     0.43     5.49     0  06:50        0.43
  WS02001213           JUNCTION     0.60     0.67     5.43     0  06:49        0.67
  WS02003069           JUNCTION     0.44     0.53     5.12     0  02:15        0.53
  WS02003072           JUNCTION     0.50     0.60     4.97     0  02:16        0.60
  WS02003073           JUNCTION     0.30     0.36     4.43     0  02:17        0.36
  WS02003060           JUNCTION     0.39     0.47     5.40     0  02:15        0.47
  WS02003066           JUNCTION     0.25     0.31     5.87     0  02:14        0.31
  WS02003059           JUNCTION     0.66     0.73     5.42     0  02:16        0.73
  WS02003067           JUNCTION     0.60     0.72     6.04     0  02:14        0.72
  WS02004401           JUNCTION     0.71     0.90     6.90     0  02:12        0.90
  WS02004402           JUNCTION     0.74     0.92     6.88     0  02:12        0.92
  WS02004403           JUNCTION     0.76     0.93     6.86     0  02:12        0.93
  WS02004404           JUNCTION     0.83     1.00     6.85     0  02:12        1.00
  WS02004406           JUNCTION     0.84     0.99     6.82     0  02:12        0.99
  WS02004409           JUNCTION     0.53     0.71     6.48     0  02:13        0.71
  WS02004410           JUNCTION     0.55     0.72     6.44     0  02:13        0.72
  WS02004411           JUNCTION     0.56     0.72     6.40     0  02:13        0.72
  WS02004412           JUNCTION     0.57     0.73     6.37     0  02:14        0.73
  WS02004413           JUNCTION     0.73     0.88     6.35     0  02:14        0.88
  WS02004405           JUNCTION     0.83     0.99     6.84     0  02:12        0.99
  WS02006109           JUNCTION     0.80     1.02     7.64     0  02:08        1.02
  WS02006110           JUNCTION     0.78     0.96     7.54     0  02:11        0.95
  WS02006111           JUNCTION     0.23     0.30     7.01     0  02:09        0.30
  WS02006112           JUNCTION     0.88     1.18     7.07     0  02:08        1.13
  WS02006113           JUNCTION     0.36     0.48     7.37     0  02:11        0.48
  WS02006115           JUNCTION     0.61     0.81     6.94     0  02:11        0.80
  WS02006116           JUNCTION     0.69     0.88     6.92     0  02:11        0.88
  WS02006230           JUNCTION     0.78     1.07     7.81     0  02:10        1.07
  WS02006231           JUNCTION     0.52     0.73     7.85     0  02:10        0.73
  WS02006232           JUNCTION     0.66     0.85     7.89     0  02:10        0.85
  WS02006234           JUNCTION     0.58     0.78     7.93     0  02:10        0.78
  WS02006235           JUNCTION     0.61     0.80     7.96     0  02:10        0.80
  WS02006238           JUNCTION     0.64     0.82     7.97     0  02:10        0.82
  WS02006240           JUNCTION     0.53     0.72     8.02     0  02:10        0.72
  WS02006242           JUNCTION     0.59     0.78     8.05     0  02:10        0.78
  WS02006243           JUNCTION     0.46     0.65     8.07     0  02:10        0.65
  WS02006245           JUNCTION     0.44     0.62     8.10     0  06:29        0.62
  WS02006247           JUNCTION     0.46     0.63     8.13     0  06:29        0.63
  WS02006248           JUNCTION     0.40     0.57     8.16     0  06:29        0.57
  WS02006249           JUNCTION     0.43     0.59     8.19     0  06:29        0.59
  WS02006239           JUNCTION     0.59     0.78     7.99     0  02:10        0.78
  WS02006251           JUNCTION     0.41     0.61     8.28     0  06:29        0.61
  WS02006252           JUNCTION     0.35     0.59     8.83     0  06:49        0.58
  WS02006253           JUNCTION     0.44     0.64     8.28     0  06:28        0.64
  WS02006256           JUNCTION     1.07     1.15     8.09     0  00:00        1.13
  WS02004138           JUNCTION     0.14     0.17     7.42     0  06:33        0.17
  WS02004407           JUNCTION     0.24     0.31     6.62     0  02:13        0.31
  WS02006228           JUNCTION     0.80     1.08     7.73     0  02:08        1.07
  WS02006229           JUNCTION     0.79     1.07     7.77     0  02:10        1.07
  WS02006280           JUNCTION     0.07     0.16     8.44     0  02:09        0.16
  WS02006284           JUNCTION     0.37     0.51     8.91     0  02:09        0.51
  WS02006287           JUNCTION     0.11     0.24     9.20     0  02:09        0.24
  WSF200               JUNCTION     0.24     0.32     5.56     0  02:14        0.32
  HS02004901           JUNCTION     0.13     0.25    10.07     0  02:07        0.25
  HS02004881           JUNCTION     0.01     0.03     9.06     0  02:08        0.03
  HS02004876           JUNCTION     0.05     0.11     9.14     0  02:05        0.11
  HS02004870           JUNCTION     0.02     0.05     9.34     0  02:09        0.05
  HS02004862           JUNCTION     0.02     0.06     9.44     0  02:09        0.06
  HS02004856           JUNCTION     0.08     0.11     9.54     0  02:09        0.11
  HS02004852           JUNCTION     0.01     0.04     9.55     0  02:09        0.04
  HS02004848           JUNCTION     0.01     0.04     9.64     0  02:09        0.04
  HS02004842           JUNCTION     0.33     0.37     9.64     0  02:09        0.37
  HS02004837           JUNCTION     0.03     0.06     9.64     0  02:09        0.06
  HS02004830           JUNCTION     0.04     0.07     9.54     0  02:09        0.07
  HS02004824           JUNCTION     0.02     0.05     9.45     0  02:10        0.05
  HS02004817           JUNCTION     0.44     0.56     9.40     0  02:09        0.56
  HS02004807           JUNCTION     0.13     0.23     9.40     0  02:09        0.23
  HS02004802           JUNCTION     0.17     0.26     9.39     0  02:09        0.26
  HS02004799           JUNCTION     0.13     0.28     9.49     0  02:07        0.28
  HS02004792           JUNCTION     0.04     0.11     9.63     0  02:07        0.11
  HS02004788           JUNCTION     0.03     0.08     9.98     0  02:08        0.08
  HS02004785           JUNCTION     0.05     0.15    10.05     0  02:08        0.15
  HS02004777           JUNCTION     0.15     0.27    10.06     0  02:07        0.27
  HS02004770           JUNCTION     0.12     0.24    10.07     0  02:07        0.24
  HS02004480           JUNCTION     0.09     0.22     9.46     0  02:07        0.22
  HS02004479           JUNCTION     0.12     0.26     9.46     0  02:08        0.26
  HS02004478           JUNCTION     0.07     0.15     9.38     0  02:08        0.15
  YS02001745           JUNCTION     0.67     0.87     8.39     0  03:10        0.87
  YS02001748           JUNCTION     1.06     2.27     9.35     0  02:25        1.31
  YS02001751           JUNCTION     1.25     2.20     9.08     0  02:27        1.52
  YS02001754           JUNCTION     1.50     2.15     8.75     0  02:27        1.81
  YS02001762           JUNCTION     1.70     2.03     8.43     0  03:04        2.02
  YS02001765           JUNCTION     1.65     1.98     8.43     0  02:57        1.96
  YS02001767           JUNCTION     1.62     1.93     8.42     0  03:14        1.91
  YS02001770           JUNCTION     1.61     1.94     8.43     0  02:27        1.90
  YS02001774           JUNCTION     1.68     2.00     8.42     0  02:27        1.96
  YS02001779           JUNCTION     1.43     1.68     8.37     0  02:25        1.68
  YS02001882           JUNCTION     0.48     1.19     7.91     0  02:57        1.18
  YS02001884           JUNCTION     0.58     1.29     7.91     0  02:58        1.28
  YS02001759           JUNCTION     1.73     2.09     8.45     0  02:27        2.06
  YS02001887           JUNCTION     0.65     1.37     7.91     0  02:58        1.37
  YS02001890           JUNCTION     0.68     1.40     7.91     0  02:58        1.39
  YS02001898           JUNCTION     0.45     1.15     7.89     0  02:58        1.15
  YS02001901           JUNCTION     0.57     1.28     7.89     0  02:58        1.27
  YS02001904           JUNCTION     0.55     1.25     7.88     0  02:58        1.24
  YS02001907           JUNCTION     0.88     1.59     7.88     0  02:58        1.58
  YS02001910           JUNCTION     0.67     1.37     7.88     0  02:57        1.37
  YS02001915           JUNCTION     0.47     1.16     7.88     0  02:57        1.16
  YS02001918           JUNCTION     0.21     0.82     7.88     0  02:58        0.81
  YS02001619           JUNCTION     1.22     1.59     8.51     0  02:22        1.47
  YS02001629           JUNCTION     1.57     1.85     8.40     0  02:25        1.84
  YS02001641           JUNCTION     1.67     1.97     8.40     0  02:25        1.93
  YS02001644           JUNCTION     1.67     1.92     8.35     0  02:25        1.92
  YS02001652           JUNCTION     1.51     2.16     8.76     0  02:54        1.94
  YS02001655           JUNCTION     1.28     2.20     9.05     0  02:13        1.79
  YS02001920           JUNCTION     0.31     0.89     7.90     0  02:57        0.88
  YS02001923           JUNCTION     0.15     0.63     7.89     0  02:58        0.62
  YS02001926           JUNCTION     0.21     0.44     7.88     0  02:57        0.44
  YS02001929           JUNCTION     0.11     0.17     7.87     0  02:57        0.17
  YS02001658           JUNCTION     1.01     2.26     9.41     0  02:45        1.67
  YS02001661           JUNCTION     0.78     2.40     9.80     0  02:45        1.60
  YS02001664           JUNCTION     0.33     0.57     8.50     0  02:42        0.56
  YS02001622           JUNCTION     1.24     1.56     8.46     0  02:24        1.49
  YS02001633           JUNCTION     1.66     1.98     8.44     0  02:25        1.94
  YS02001649           JUNCTION     1.71     2.05     8.44     0  02:41        2.05
  YS02001757           JUNCTION     1.83     2.17     8.43     0  03:05        2.16
  YS02001895           JUNCTION     0.45     1.15     7.90     0  02:57        1.14
  YS02001625           JUNCTION     1.52     1.78     8.38     0  02:22        1.78
  YS02163301           JUNCTION     1.60     1.90     8.42     0  02:25        1.87
  YS02163601           JUNCTION     1.71     2.05     8.44     0  02:25        1.98
  YS02164001           JUNCTION     1.65     1.98     8.44     0  02:25        1.91
  YS02001647           JUNCTION     1.50     1.81     8.42     0  02:45        1.79
  YSB1154              JUNCTION     0.26     0.41     9.47     0  02:08        0.41
  YSB6556              JUNCTION     0.16     0.30     9.47     0  02:08        0.30
  YSB1174              JUNCTION     0.22     0.36     9.47     0  02:08        0.36
  YSB1171              JUNCTION     0.41     0.56     9.47     0  02:08        0.56
  YS02006553           JUNCTION     0.88     1.58     7.87     0  02:58        1.58
  YS02006561           JUNCTION     0.27     0.80     7.46     0  02:57        0.80
  YS02006556           JUNCTION     0.85     1.54     7.85     0  02:57        1.53
  YS02006558           JUNCTION     0.89     1.57     7.84     0  02:58        1.56
  YS02001783           JUNCTION     0.52     1.41     7.56     0  02:16        1.22
  YS02001784           JUNCTION     0.55     1.80     7.87     0  02:16        1.20
  YS02001786           JUNCTION     0.51     2.23     8.26     0  02:16        1.09
  YS02001788           JUNCTION     0.46     1.86     7.83     0  02:16        1.00
  YS02001790           JUNCTION     0.62     1.96     7.60     0  02:15        1.21
  YS02001791           JUNCTION     0.63     1.73     7.20     0  02:16        1.24
  YS02001793           JUNCTION     0.91     2.56     7.39     0  02:13        1.79
  WS02004139           JUNCTION     0.57     0.65     5.56     0  06:51        0.65
  WSC                  OUTFALL      0.30     0.36     1.03     0  02:17        0.36
  3                    OUTFALL      0.10     0.13     6.13     0  00:00        0.13
  4                    OUTFALL      0.02     0.09     7.09     0  06:29        0.09
  5                    OUTFALL      0.00     0.00     5.00     0  00:00        0.00
  JK-storage           STORAGE      3.37     5.80     6.60     0  02:16        5.80
  CC-storage           STORAGE      1.06     1.37     8.37     0  03:10        1.37
  XR-storage           STORAGE      7.60     7.72     5.72     0  00:51        7.72
  
  
  *******************
  Node Inflow Summary
  *******************
  
  -------------------------------------------------------------------------------------------------
                                  Maximum  Maximum                  Lateral       Total        Flow
                                  Lateral    Total  Time of Max      Inflow      Inflow     Balance
                                   Inflow   Inflow   Occurrence      Volume      Volume       Error
  Node                 Type           LPS      LPS  days hr:min    10^6 ltr    10^6 ltr     Percent
  -------------------------------------------------------------------------------------------------
  WS02001211           JUNCTION      7.35   292.67     0  07:05       0.207         5.4       0.592
  WS02001212           JUNCTION      0.00   292.68     0  07:04           0        5.37       0.292
  WS02001213           JUNCTION      0.00   292.68     0  07:03           0        5.35       0.354
  WS02003069           JUNCTION      0.32   807.53     0  02:15     0.00902        14.5       0.141
  WS02003072           JUNCTION      0.00   807.16     0  02:16           0        14.5       0.185
  WS02003073           JUNCTION      1.82   808.86     0  02:16      0.0514        14.5       0.201
  WS02003060           JUNCTION     16.53   808.01     0  02:15       0.466        14.5       0.134
  WS02003066           JUNCTION      0.00   593.62     0  02:14           0        8.73       0.034
  WS02003059           JUNCTION      0.00   292.70     0  07:03           0        5.34       0.638
  WS02003067           JUNCTION      0.00   593.55     0  02:14           0        8.73       0.077
  WS02004401           JUNCTION      0.00   596.32     0  02:11           0         8.9       0.171
  WS02004402           JUNCTION      0.00   596.71     0  02:12           0        8.88       0.167
  WS02004403           JUNCTION      0.00   595.35     0  02:10           0        8.87       0.157
  WS02004404           JUNCTION      0.16   595.76     0  02:12     0.00457        8.86       0.124
  WS02004406           JUNCTION      0.00   595.55     0  02:12           0        8.83       0.303
  WS02004409           JUNCTION      0.00   594.54     0  02:13           0         8.8       0.103
  WS02004410           JUNCTION      0.00   594.34     0  02:13           0        8.79       0.126
  WS02004411           JUNCTION      0.00   594.01     0  02:13           0        8.78       0.137
  WS02004412           JUNCTION      0.00   593.89     0  02:13           0        8.77       0.158
  WS02004413           JUNCTION      0.00   593.89     0  02:14           0        8.75       0.249
  WS02004405           JUNCTION      0.04   595.94     0  02:12     0.00107        8.85       0.185
  WS02006109           JUNCTION      1.23   583.86     0  02:10      0.0347        8.92       0.182
  WS02006110           JUNCTION      0.00   583.86     0  02:10           0        8.91       0.153
  WS02006111           JUNCTION      0.00   610.96     0  02:11           0        8.89       0.025
  WS02006112           JUNCTION     10.18   601.28     0  02:09      0.0577        8.94       0.254
  WS02006113           JUNCTION      0.00   584.61     0  02:10           0        8.89       0.058
  WS02006115           JUNCTION      0.00   609.09     0  02:09           0        8.92       0.136
  WS02006116           JUNCTION      0.00   597.79     0  02:11           0        8.91       0.136
  WS02006230           JUNCTION     10.28   392.53     0  07:12        0.29        7.17       0.163
  WS02006231           JUNCTION      0.00   382.62     0  07:11           0        6.88       0.025
  WS02006232           JUNCTION      0.00   382.59     0  07:11           0        6.89       0.156
  WS02006234           JUNCTION      0.00   382.75     0  07:11           0        6.89       0.033
  WS02006235           JUNCTION      0.00   383.41     0  06:22           0        6.93       0.106
  WS02006238           JUNCTION      0.00   314.30     0  07:10           0        4.78       0.076
  WS02006240           JUNCTION      0.00   315.13     0  06:21           0        4.76       0.072
  WS02006242           JUNCTION      0.00   316.55     0  06:21           0        4.76       0.078
  WS02006243           JUNCTION      0.00   322.24     0  06:21           0        4.75      -0.038
  WS02006245           JUNCTION      0.00   325.66     0  06:20           0        4.75       0.045
  WS02006247           JUNCTION      0.00   329.50     0  06:20           0        4.75       0.003
  WS02006248           JUNCTION      0.00   333.38     0  06:20           0        4.75      -0.016
  WS02006249           JUNCTION      0.00   400.69     0  06:29           0        5.07       0.029
  WS02006239           JUNCTION      0.00   314.29     0  07:10           0        4.77       0.086
  WS02006251           JUNCTION      0.08   401.13     0  06:25     0.00217        5.07      -0.001
  WS02006252           JUNCTION      0.00   400.00     0  06:20           0        4.73       0.002
  WS02006253           JUNCTION      1.44    57.92     0  02:08     0.00747       0.337      -0.096
  WS02006256           JUNCTION      0.00   300.00     0  00:00           0        5.69       0.045
  WS02004138           JUNCTION      0.00   285.00     0  06:20           0        5.22       0.062
  WS02004407           JUNCTION      0.00   595.05     0  02:12           0         8.8       0.047
  WS02006228           JUNCTION      0.00   582.63     0  02:10           0         8.9       0.115
  WS02006229           JUNCTION      0.00   582.24     0  02:10           0        8.91       0.111
  WS02006280           JUNCTION      0.00   274.19     0  02:09           0        1.75       0.004
  WS02006284           JUNCTION      0.10   274.19     0  02:09      0.0027        1.75       0.059
  WS02006287           JUNCTION      0.00   274.08     0  02:09           0        1.75       0.041
  WSF200               JUNCTION      0.00   593.69     0  02:14           0        8.72       0.027
  HS02004901           JUNCTION     12.34    12.34     0  01:36      0.0695      0.0697       2.590
  HS02004881           JUNCTION      5.34    56.62     0  02:08      0.0303       0.326       0.110
  HS02004876           JUNCTION     10.11    51.23     0  02:08      0.0584       0.296       0.183
  HS02004870           JUNCTION     10.08    41.18     0  02:08      0.0575       0.238       0.045
  HS02004862           JUNCTION      9.99    31.21     0  02:08      0.0634        0.18       0.096
  HS02004856           JUNCTION      7.58    21.25     0  02:08      0.0432       0.118       1.231
  HS02004852           JUNCTION      0.00    13.78     0  02:09           0      0.0753       0.072
  HS02004848           JUNCTION     22.44    22.44     0  02:09       0.139       0.139       0.032
  HS02004842           JUNCTION      0.00     8.71     0  02:17           0      0.0763      20.533
  HS02004837           JUNCTION     23.78    32.32     0  02:08       0.279       0.343       0.237
  HS02004830           JUNCTION      0.15    32.46     0  02:09     0.00423       0.333       0.372
  HS02004824           JUNCTION     27.40    59.85     0  02:10       0.181       0.513       0.105
  HS02004817           JUNCTION      0.60    60.44     0  02:10      0.0169       0.529       3.252
  HS02004807           JUNCTION     18.56    78.63     0  02:09       0.106       0.618       0.704
  HS02004802           JUNCTION      0.00    78.69     0  02:10           0       0.615       0.647
  HS02004799           JUNCTION     14.98   164.66     0  02:07      0.0856       0.976       0.270
  HS02004792           JUNCTION     62.86   149.73     0  02:07       0.364       0.891       0.045
  HS02004788           JUNCTION     22.43    86.95     0  02:07       0.166       0.528       0.074
  HS02004785           JUNCTION      0.15    64.59     0  02:07     0.00423       0.363       0.135
  HS02004777           JUNCTION      0.03    64.48     0  02:07    0.000846       0.364       1.448
  HS02004770           JUNCTION     52.29    64.50     0  02:06       0.297       0.365       0.854
  HS02004480           JUNCTION      0.00   195.78     0  02:07           0        1.15       0.098
  HS02004479           JUNCTION      0.00    31.20     0  02:09           0       0.188       0.391
  HS02004478           JUNCTION      0.00   274.07     0  02:08           0        1.75       0.020
  YS02001745           JUNCTION    214.32   437.81     0  02:25        2.14        2.16       0.466
  YS02001748           JUNCTION      0.04   612.52     0  02:25     0.00127        2.16       1.041
  YS02001751           JUNCTION      0.01   287.52     0  02:13     0.00031        2.11       1.121
  YS02001754           JUNCTION      0.26   262.29     0  02:25     0.00733         2.1       1.201
  YS02001762           JUNCTION      0.00   257.63     0  02:30           0        1.81       1.180
  YS02001765           JUNCTION      0.00   257.46     0  02:44           0        1.81       1.363
  YS02001767           JUNCTION      0.54   257.08     0  02:44      0.0151        1.83       1.982
  YS02001770           JUNCTION    259.81   259.81     0  02:54        2.41        2.43       1.307
  YS02001774           JUNCTION      0.00   228.74     0  03:14           0       0.597       4.414
  YS02001779           JUNCTION      0.01   229.15     0  03:14    0.000141       0.564       2.819
  YS02001882           JUNCTION      0.00    21.83     0  02:18           0      0.0162      15.040
  YS02001884           JUNCTION      0.00    39.31     0  02:18           0      0.0538      12.128
  YS02001759           JUNCTION    246.73   501.37     0  02:44        2.23           4       0.576
  YS02001887           JUNCTION    301.84   312.99     0  02:19        2.57        2.61       0.312
  YS02001890           JUNCTION      0.00   308.40     0  02:43           0        2.56       0.346
  YS02001898           JUNCTION      0.00   312.10     0  02:44           0        2.54       0.114
  YS02001901           JUNCTION      0.00   304.46     0  02:51           0        2.54       0.258
  YS02001904           JUNCTION      0.00   304.65     0  02:51           0        2.54       0.237
  YS02001907           JUNCTION      0.00   590.41     0  03:02           0        5.62       0.420
  YS02001910           JUNCTION      0.00   322.85     0  03:05           0         3.1       0.368
  YS02001915           JUNCTION    186.98   320.81     0  03:05         1.8         3.1       0.187
  YS02001918           JUNCTION      0.00   159.61     0  03:06           0         1.3       0.133
  YS02001619           JUNCTION    183.42   183.42     0  02:55        1.79        1.79       0.692
  YS02001629           JUNCTION      0.00   176.33     0  02:39           0        1.66       1.768
  YS02001641           JUNCTION      0.00   375.74     0  02:39           0        3.69       0.575
  YS02001644           JUNCTION    204.56   931.42     0  03:09        2.06        7.36       0.356
  YS02001652           JUNCTION      0.00   305.30     0  02:24           0        1.87       1.231
  YS02001655           JUNCTION      0.15   404.30     0  02:09     0.00434         1.9       1.341
  YS02001920           JUNCTION      2.87   150.81     0  03:06      0.0809        1.31       0.210
  YS02001923           JUNCTION      0.04   114.75     0  03:02     0.00106        1.23       0.046
  YS02001926           JUNCTION      0.05   105.44     0  03:01     0.00147        1.23       0.255
  YS02001929           JUNCTION    100.40   100.40     0  03:01        1.23        1.23       0.039
  YS02001658           JUNCTION      0.00   570.29     0  02:22           0        1.92       1.155
  YS02001661           JUNCTION      0.00   618.83     0  02:42           0        2.64      -0.187
  YS02001664           JUNCTION    219.77   379.56     0  02:42        1.91        2.64       0.219
  YS02001622           JUNCTION      0.00   183.71     0  02:54           0        1.78       1.821
  YS02001633           JUNCTION    208.70   374.19     0  02:39        2.13        3.75       0.852
  YS02001649           JUNCTION      0.00   794.13     0  02:24           0         4.8       0.774
  YS02001757           JUNCTION      0.00  1459.88     0  02:38           0        9.13       1.023
  YS02001895           JUNCTION      0.00   308.50     0  02:43           0        2.55       0.190
  YS02001625           JUNCTION      0.00   183.52     0  02:54           0        1.74       2.294
  YS02163301           JUNCTION      0.00   191.14     0  02:23           0        1.65       1.465
  YS02163601           JUNCTION      0.11   374.62     0  02:39      0.0031        3.71       0.818
  YS02164001           JUNCTION      0.00   374.91     0  02:39           0        3.69       0.554
  YS02001647           JUNCTION      0.00   569.84     0  02:39           0         3.8       0.752
  YSB1154              JUNCTION     18.00    18.00     0  02:07       0.104       0.105       1.400
  YSB6556              JUNCTION      0.00    17.99     0  02:06           0       0.105       1.199
  YSB1174              JUNCTION     13.79    13.79     0  01:35      0.0753      0.0758       1.722
  YSB1171              JUNCTION      0.00    31.24     0  02:07           0       0.187       3.509
  YS02006553           JUNCTION      0.00   590.38     0  03:02           0        5.61       0.275
  YS02006561           JUNCTION      0.00   844.58     0  02:58           0        7.92       0.009
  YS02006556           JUNCTION      0.00   590.25     0  03:02           0        5.62       0.196
  YS02006558           JUNCTION    265.84   844.65     0  02:58        2.36        7.95       0.063
  YS02001783           JUNCTION      0.00   841.29     0  02:57           0        7.92       0.026
  YS02001784           JUNCTION      1.06   842.33     0  02:57      0.0299        7.95       0.044
  YS02001786           JUNCTION      0.06   842.34     0  02:57     0.00159        7.94       0.039
  YS02001788           JUNCTION      0.07   842.33     0  02:57       0.002        7.94       0.024
  YS02001790           JUNCTION      0.15   842.51     0  02:57     0.00437        7.95       0.029
  YS02001791           JUNCTION      0.00   842.46     0  02:58           0        7.94       0.013
  YS02001793           JUNCTION      0.00   842.60     0  02:57           0        7.94       0.002
  WS02004139           JUNCTION      0.32   285.32     0  06:23     0.00905        5.22       0.582
  WSC                  OUTFALL       0.00   808.78     0  02:17           0        14.4       0.000
  3                    OUTFALL       0.00   250.55     0  00:00           0        3.52       0.000
  4                    OUTFALL       0.00    87.80     0  06:29           0       0.319       0.000
  5                    OUTFALL       0.00     0.00     0  00:00           0           0       0.000 ltr
  JK-storage           STORAGE       0.00   936.67     0  02:12           0        8.09      -1.369
  CC-storage           STORAGE       0.00  1459.88     0  02:38           0        8.22       0.754
  XR-storage           STORAGE     549.18   549.18     0  02:55        9.26        9.86      -0.002
  
  
  **********************
  Node Surcharge Summary
  **********************
  
  Surcharging occurs when water rises above the top of the highest conduit.
  ---------------------------------------------------------------------
                                               Max. Height   Min. Depth
                                   Hours       Above Crown    Below Rim
  Node                 Type      Surcharged         Meters       Meters
  ---------------------------------------------------------------------
  WS02004404           JUNCTION        0.13          0.003        2.777
  WS02006109           JUNCTION        2.60          0.199        1.621
  WS02006110           JUNCTION        1.09          0.045        1.805
  WS02006112           JUNCTION        1.32          0.183        1.497
  WS02006231           JUNCTION        0.42          0.021        1.509
  WS02006232           JUNCTION        2.45          0.151        1.329
  WS02006234           JUNCTION        0.89          0.056        1.184
  WS02006235           JUNCTION        1.80          0.088        1.202
  WS02006238           JUNCTION        2.21          0.104        1.326
  WS02006240           JUNCTION        0.41          0.014        1.376
  WS02006242           JUNCTION        1.69          0.047        0.773
  WS02006239           JUNCTION        0.82          0.044        1.246
  WS02006252           JUNCTION        1.02          0.193        0.907
  WS02006228           JUNCTION        2.54          0.247        1.953
  YS02001748           JUNCTION        4.89          1.190        0.000
  YS02001751           JUNCTION        5.51          1.200        0.000
  YS02001754           JUNCTION        5.73          1.096        0.054
  YS02001762           JUNCTION        5.96          1.032        0.118
  YS02001765           JUNCTION        5.94          0.976        0.124
  YS02001767           JUNCTION        5.92          0.933        0.097
  YS02001770           JUNCTION        5.88          0.906        0.014
  YS02001774           JUNCTION        5.95          0.998        0.052
  YS02001779           JUNCTION        5.73          0.680        0.000
  YS02001882           JUNCTION        0.48          0.193        0.637
  YS02001884           JUNCTION        0.55          0.233        0.637
  YS02001759           JUNCTION        5.98          1.086        0.124
  YS02001887           JUNCTION        0.71          0.324        0.626
  YS02001890           JUNCTION        0.75          0.352        0.408
  YS02001898           JUNCTION        0.36          0.125        0.615
  YS02001901           JUNCTION        0.65          0.281        0.589
  YS02001904           JUNCTION        0.61          0.253        0.597
  YS02001907           JUNCTION        1.43          0.579        0.371
  YS02001910           JUNCTION        0.83          0.375        0.725
  YS02001915           JUNCTION        0.44          0.164        0.836
  YS02001619           JUNCTION        5.53          0.585        0.025
  YS02001629           JUNCTION        5.53          0.470        0.000
  YS02001641           JUNCTION        5.94          0.967        0.133
  YS02001644           JUNCTION        5.95          0.920        0.000
  YS02001652           JUNCTION        5.75          1.130        0.000
  YS02001655           JUNCTION        5.58          1.200        0.000
  YS02001658           JUNCTION        5.04          1.264        0.036
  YS02001661           JUNCTION        0.21          1.331        0.059
  YS02001622           JUNCTION        5.58          0.557        0.063
  YS02001633           JUNCTION        5.93          0.964        0.096
  YS02001649           JUNCTION        5.96          1.050        0.000
  YS02001757           JUNCTION        6.04          1.169        0.041
  YS02001895           JUNCTION        0.40          0.150        0.600
  YS02001625           JUNCTION        5.76          0.780        0.000
  YS02163301           JUNCTION        5.91          0.904        0.126
  YS02163601           JUNCTION        5.96          1.047        0.033
  YS02164001           JUNCTION        5.94          0.979        0.121
  YS02001647           JUNCTION        5.75          0.805        0.095
  YS02006553           JUNCTION        1.50          0.584        0.606
  YS02006556           JUNCTION        1.11          0.496        0.854
  YS02006558           JUNCTION        1.07          0.471        0.929
  YS02001783           JUNCTION        1.22          0.615        0.985
  YS02001784           JUNCTION        1.28          0.997        0.493
  YS02001786           JUNCTION        1.23          1.430        0.000
  YS02001788           JUNCTION        1.21          1.056        0.424
  YS02001790           JUNCTION        2.59          1.157        0.000
  YS02001791           JUNCTION        2.71          0.926        0.994
  YS02001793           JUNCTION        2.92          1.558        1.042
  
  
  *********************
  Node Flooding Summary
  *********************
  
  Flooding refers to all water that overflows a node, whether it ponds or not.
  --------------------------------------------------------------------------
                                                             Total   Maximum
                                 Maximum   Time of Max       Flood    Ponded
                        Hours       Rate    Occurrence      Volume     Depth
  Node                 Flooded       LPS   days hr:min    10^6 ltr    Meters
  --------------------------------------------------------------------------
  YS02001748              0.01    180.17      0  02:26       0.001     0.000
  YS02001751              0.01      9.73      0  02:27       0.000     0.000
  YS02001779              2.19    229.07      0  03:14       0.541     0.000
  YS02001629              0.01      4.28      0  02:28       0.000     0.000
  YS02001644              3.70    931.38      0  03:09       5.153     0.000
  YS02001652              0.01      3.79      0  02:54       0.000     0.000
  YS02001655              0.01    140.40      0  02:13       0.000     0.000
  YS02001649              0.07     43.32      0  02:45       0.004     0.000
  YS02001625              0.55     36.87      0  02:54       0.045     0.000
  YS02001786              0.01     75.02      0  02:16       0.000     0.000
  YS02001790              0.01    103.14      0  02:15       0.000     0.000
  JK-storage              2.27    542.63      0  02:58       2.515     0.000
  XR-storage              5.65    359.18      0  02:55       3.723     0.000
  
  
  **********************
  Storage Volume Summary
  **********************
  
  --------------------------------------------------------------------------------------------------
                         Average     Avg  Evap Exfil       Maximum     Max    Time of Max    Maximum
                          Volume    Pcnt  Pcnt  Pcnt        Volume    Pcnt     Occurrence    Outflow
  Storage Unit           1000 m3    Full  Loss  Loss       1000 m3    Full    days hr:min        LPS
  --------------------------------------------------------------------------------------------------
  JK-storage               0.169      58     0     0         0.291     100       0  02:16     333.02
  CC-storage               2.950      19     0     0         3.820      24       0  03:10     400.00
  XR-storage               0.912      98     0     0         0.926     100       0  00:51     285.00
  
  
  ***********************
  Outfall Loading Summary
  ***********************
  
  -----------------------------------------------------------
                         Flow       Avg       Max       Total
                         Freq      Flow      Flow      Volume
  Outfall Node           Pcnt       LPS       LPS    10^6 ltr
  -----------------------------------------------------------
  WSC                   99.99    590.32    808.78      14.449
  3                     93.98    173.24    250.55       3.518
  4                     30.27     36.30     87.80       0.319
  5                      0.00      0.00      0.00       0.000
  -----------------------------------------------------------
  System                56.06    799.86   1065.68      18.286
  
  
  ********************
  Link Flow Summary
  ********************
  
  -----------------------------------------------------------------------------
                                 Maximum  Time of Max   Maximum    Max/    Max/
                                  |Flow|   Occurrence   |Veloc|    Full    Full
  Link                 Type          LPS  days hr:min     m/sec    Flow   Depth
  -----------------------------------------------------------------------------
  WS02003066WSF200     CONDUIT    593.69     0  02:14      2.80    0.10    0.24
  WS02006287WS02006284 CONDUIT    274.09     0  02:09      1.78    0.13    0.25
  WS02006284WS02006280 CONDUIT    274.19     0  02:09      2.02    0.11    0.23
  WS02006280WS02006229 CONDUIT    274.19     0  02:09      3.26    0.06    0.16
  WS02006229WS02006228 CONDUIT    582.63     0  02:10      1.16    1.93    1.00
  WS02006256WS02006235 CONDUIT    166.25     0  00:01      2.58    1.76    1.00
  WS02006253WS02006251 CONDUIT     57.86     0  02:09      0.52    0.17    0.89
  WS02006252WS02006251 CONDUIT    400.53     0  07:07      3.19    1.47    1.00
  WS02006251WS02006249 CONDUIT    400.69     0  06:29      1.15    1.16    0.86
  WS02006249WS02006248 CONDUIT    333.38     0  06:20      1.08    1.83    0.82
  WS02006248WS02006247 CONDUIT    329.50     0  06:20      1.04    0.72    0.85
  WS02006247WS02006245 CONDUIT    325.66     0  06:20      1.01    2.58    0.88
  WS02006245WS02006243 CONDUIT    322.24     0  06:21      1.07    0.95    0.89
  WS02006243WS02006242 CONDUIT    316.55     0  06:21      0.86    0.68    0.97
  WS02006242WS02006240 CONDUIT    315.13     0  06:21      0.83    1.25    1.00
  WS02006240WS02006239 CONDUIT    314.29     0  07:10      0.83    0.99    1.00
  WS02006239WS02006238 CONDUIT    314.30     0  07:10      0.82    1.01    1.00
  WS02006238WS02006235 CONDUIT    314.30     0  07:10      1.25    0.70    1.00
  WS02006235WS02006234 CONDUIT    382.75     0  07:11      1.01    4.04    1.00
  WS02006234WS02006232 CONDUIT    382.59     0  07:11      1.13    0.77    1.00
  WS02006232WS02006231 CONDUIT    382.62     0  07:11      1.05    0.80    1.00
  WS02006231WS02006230 CONDUIT    382.25     0  07:12      1.32    5.80    0.99
  WS02006230WS02006229 CONDUIT    392.38     0  07:12      1.02    8.73    1.00
  WS02006228WS02006109 CONDUIT    582.63     0  02:10      1.16    2.55    1.00
  WS02006116WS02004401 CONDUIT    596.32     0  02:11      0.81    0.82    0.89
  WS02006115WS02006116 CONDUIT    597.79     0  02:11      0.88    0.77    0.81
  WS02006113WS02006111 CONDUIT    610.96     0  02:11      2.54    0.73    0.48
  WS02006112WS02006115 CONDUIT    609.09     0  02:09      0.82    0.36    0.90
  WS02006111WS02006112 CONDUIT    591.55     0  02:11      1.62    0.28    0.68
  WS02006110WS02006113 CONDUIT    584.61     0  02:10      1.36    0.53    0.80
  WS02006109WS02006110 CONDUIT    583.86     0  02:10      1.16    1.12    1.00
  WS02004411WS02004412 CONDUIT    593.89     0  02:13      0.97    0.84    0.73
  WS02004401WS02004402 CONDUIT    596.71     0  02:12      0.80    0.72    0.91
  WS02004413WS02003067 CONDUIT    593.55     0  02:14      1.17    0.25    0.61
  WS02004412WS02004413 CONDUIT    593.89     0  02:14      0.88    0.40    0.81
  WS02004410WS02004411 CONDUIT    594.01     0  02:13      0.98    0.81    0.72
  WS02004409WS02004410 CONDUIT    594.34     0  02:13      0.99    0.77    0.71
  WS02004407WS02004409 CONDUIT    594.54     0  02:13      1.48    0.21    0.51
  WS02004406WS02004407 CONDUIT    595.05     0  02:12      1.10    0.27    0.65
  WS02004405WS02004406 CONDUIT    595.55     0  02:12      0.76    1.17    0.99
  WS02004404WS02004405 CONDUIT    595.91     0  02:12      0.84    5.84    1.00
  WS02004403WS02004404 CONDUIT    595.60     0  02:12      0.77    0.43    0.97
  WS02004402WS02004403 CONDUIT    595.35     0  02:10      0.78    0.86    0.93
  WS02004139WS02001211 CONDUIT    285.33     0  07:05      0.53    0.36    0.52
  WS02004138WS02004139 CONDUIT    285.00     0  06:23      2.39    0.06    0.38
  WS02003067WS02003066 CONDUIT    593.62     0  02:14      1.28    0.19    0.43
  WS02001213WS02003059 CONDUIT    292.70     0  07:03      0.51    0.48    0.69
  WS02001212WS02001213 CONDUIT    292.68     0  07:03      1.08    0.45    0.39
  WS02001211WS02001212 CONDUIT    292.68     0  07:04      0.64    0.22    0.57
  WS02003072WS02003073 CONDUIT    807.04     0  02:16      1.64    1.74    0.45
  WS02003069WS02003072 CONDUIT    807.16     0  02:16      1.54    0.39    0.47
  WS02003060WS02003069 CONDUIT    807.21     0  02:15      1.80    0.32    0.42
  WS02003059WS02003060 CONDUIT    292.71     0  07:02      0.67    0.19    0.60
  HS02004901HS02004770 CONDUIT     12.22     0  02:07      0.05    0.05    0.35
  HS02004876HS02004881 CONDUIT     51.32     0  02:08      0.76    0.55    0.10
  HS02004870HS02004876 CONDUIT     41.17     0  02:09      0.52    0.03    0.11
  HS02004842HS02004848 CONDUIT      8.71     0  02:17      0.04    0.01    0.29
  HS02004837HS02004842 CONDUIT      8.85     0  02:14      0.41    0.01    0.30
  HS02004830HS02004837 CONDUIT     32.31     0  02:09      0.50    0.03    0.09
  HS02004824HS02004830 CONDUIT     32.45     0  02:09      0.53    0.04    0.09
  HS02004817HS02004824 CONDUIT     59.84     0  02:10      0.20    0.03    0.43
  HS02004770HS02004777 CONDUIT     64.45     0  02:07      0.26    0.12    0.36
  HS02004799HS02004480 CONDUIT    164.63     0  02:07      0.67    0.21    0.35
  HS02004792HS02004799 CONDUIT    149.69     0  02:07      0.76    0.09    0.28
  HS02004788HS02004792 CONDUIT     86.94     0  02:08      0.90    0.06    0.14
  HS02004785HS02004788 CONDUIT     64.57     0  02:08      0.57    0.49    0.16
  HS02004777HS02004785 CONDUIT     64.44     0  02:07      0.31    0.08    0.29
  HS02004480HS02004478 CONDUIT    195.75     0  02:08      1.06    0.82    0.26
  HS02004479HS02004480 CONDUIT     31.31     0  02:10      0.28    0.03    0.34
  HS02004862HS02004870 CONDUIT     31.19     0  02:09      0.56    0.03    0.08
  HS02004848HS02004852 CONDUIT     13.78     0  02:09      0.38    0.02    0.05
  HS02004856HS02004862 CONDUIT     21.24     0  02:09      0.41    0.02    0.07
  HS02004852HS02004856 CONDUIT     13.76     0  02:09      0.18    0.02    0.11
  HS02004802HS02004478 CONDUIT     78.88     0  02:11      0.38    0.07    0.29
  HS02004478WS02006287 CONDUIT    274.08     0  02:09      1.48    0.08    0.21
  HS02004817HS02004807 CONDUIT     60.62     0  02:11      0.15    0.04    0.56
  HS02004807HS02004802 CONDUIT     78.69     0  02:10      0.32    0.15    0.35
  YS02001759YS02001757 CONDUIT    501.32     0  02:44      0.64    0.36    1.00
  YS02001762YS02001759 CONDUIT    258.93     0  02:30      0.33    0.30    1.00
  YS02001765YS02001762 CONDUIT    257.63     0  02:30      0.33    0.24    1.00
  YS02001770YS02001767 CONDUIT    256.54     0  02:44      0.38    1.02    1.00
  YS02001774YS02001770 CONDUIT    228.74     0  03:14      0.29    0.15    1.00
  YS02001779YS02001774 CONDUIT    229.14     0  03:14      0.29    0.12    1.00
  YS02001649YS02001757 CONDUIT    792.27     0  02:24      1.01    0.48    1.00
  YS02001767YS02001765 CONDUIT    257.46     0  02:44      0.35    0.32    1.00
  YS02006561YS02001783 CONDUIT    841.29     0  02:57      2.11    0.44    1.00
  YS02001783YS02001784 CONDUIT    841.27     0  02:57      1.67    1.16    1.00
  YS02001784YS02001785 CONDUIT    842.29     0  02:57      1.73    1.96    1.00
  YS02001788YS02001790 CONDUIT    842.36     0  02:57      2.26    0.62    1.00
  YS02001790YS02001791 CONDUIT    842.46     0  02:58      2.73    0.92    1.00
  YS02001791YS02001793 CONDUIT    842.60     0  02:57      5.48    0.36    1.00
  YS02001910YS02001907 CONDUIT    322.79     0  03:05      0.49    0.18    1.00
  YS02001786YS02001788 CONDUIT    842.26     0  02:57      2.18    1.62    1.00
  YS02001915YS02001910 CONDUIT    322.85     0  03:05      0.56    0.16    1.00
  YS02001918YS02001915 CONDUIT    151.88     0  03:10      0.44    0.08    0.91
  YS02001923YS02001920 CONDUIT    147.94     0  03:06      0.66    0.07    0.75
  YS02001926YS02001923 CONDUIT    114.71     0  03:02      0.76    0.16    0.43
  YS02001929YS02001926 CONDUIT    105.39     0  03:01      0.81    0.05    0.30
  YS02001920YS02001918 CONDUIT    159.61     0  03:06      0.65    0.15    0.85
  YS02001629YS02163301 CONDUIT    191.14     0  02:23      0.24    0.24    1.00
  YS02001619YS02001622 CONDUIT    183.71     0  02:54      0.67    0.27    1.00
  YS02001622YS02001625 CONDUIT    183.52     0  02:54      0.32    0.10    1.00
  YS02001625YS02001629 CONDUIT    176.33     0  02:39      0.27    0.08    1.00
  YS02163301YS02001633 CONDUIT    191.32     0  02:23      0.24    0.18    1.00
  YS02163601YS02164001 CONDUIT    374.91     0  02:39      0.48    0.33    1.00
  YS02164001YS02001641 CONDUIT    375.74     0  02:39      0.48    0.51    1.00
  YS02001641YS02001644 CONDUIT    376.24     0  02:39      0.48    1.22    1.00
  YS02001647YS02001649 CONDUIT    570.33     0  02:39      0.73    0.30    1.00
  YS02006553YS02006556 CONDUIT    590.25     0  03:02      0.75    0.50    1.00
  YS02006556YS02006558 CONDUIT    590.40     0  03:02      0.75    0.47    1.00
  YSB6556YSB1171       CONDUIT     18.03     0  02:09      0.07    0.02    0.61
  YS02001907YS02006553 CONDUIT    590.38     0  03:02      0.66    0.69    1.00
  YS02006558YS02006561 CONDUIT    844.58     0  02:58      3.16    1.87    1.00
  YS02001633YS02163601 CONDUIT    374.51     0  02:39      0.48    0.39    1.00
  YS02001644YS02001647 CONDUIT    569.84     0  02:39      0.73    0.33    1.00
  YS02001745YS02001748 CONDUIT    612.47     0  02:25      1.53    0.24    0.94
  YS02001748YS02001751 CONDUIT    287.51     0  02:13      1.14    0.15    1.00
  YS02001751YS02001754 CONDUIT    262.03     0  02:25      0.97    0.13    1.00
  YS02001754YS02001757 CONDUIT    262.33     0  02:25      0.33    0.11    1.00
  YS02001882YS02001884 CONDUIT     21.83     0  02:18      0.12    0.03    1.00
  YS02001884YS02001887 CONDUIT     39.31     0  02:18      0.09    0.05    1.00
  YS02001890YS02001895 CONDUIT    308.50     0  02:43      0.46    0.14    1.00
  YS02001895YS02001898 CONDUIT    312.10     0  02:44      0.57    0.54    1.00
  YS02001898YS02001901 CONDUIT    304.46     0  02:51      0.49    0.20    1.00
  YS02001901YS02001904 CONDUIT    304.65     0  02:51      0.45    0.47    1.00
  YS02001904YS02001907 CONDUIT    305.01     0  02:51      0.40    0.11    1.00
  YS02001887YS02001890 CONDUIT    308.40     0  02:43      0.41    0.53    1.00
  YS02001652YS02001649 CONDUIT    304.79     0  02:24      0.58    0.15    1.00
  YS02001655YS02001652 CONDUIT    305.30     0  02:24      1.05    0.15    1.00
  YS02001658YS02001655 CONDUIT    404.15     0  02:09      1.31    0.17    1.00
  YS02001661YS02001658 CONDUIT    570.29     0  02:22      1.61    0.22    1.00
  YS02001664YS02001661 CONDUIT    618.83     0  02:42      1.57    0.19    0.71
  YSB1154YSB6556       CONDUIT     17.99     0  02:06      0.16    0.03    0.50
  YSB1174YSB1171       CONDUIT     13.75     0  01:36      0.06    0.02    0.62
  YSB1171HS02004479    CONDUIT     31.20     0  02:09      0.54    0.02    0.48
  HS02004881HS02006253 CONDUIT     56.61     0  02:08      1.79    0.01    0.22
  YS02001793JiankangQianchi CONDUIT    936.67     0  02:12     13.02    0.07    1.00
  YS02001757CaochengTiaoxuchi CONDUIT   1459.88     0  02:38      2.39    0.64    1.00
  WSF200WS02003060     CONDUIT    594.10     0  02:15      1.81    0.13    0.33
  1                    CONDUIT    808.78     0  02:17      3.14    0.28    0.36
  2                    CONDUIT     87.80     0  06:29      4.67    0.21    0.31
  3                    CONDUIT    250.55     0  00:00      8.26    0.40    0.46
  4                    CONDUIT      0.00     0  00:00      0.00    0.00    0.00
  CC-Pump-1            PUMP       200.00     0  06:20              1.00
  CC-Pump-2            PUMP       200.00     0  01:42              1.00
  JK-Pump-1            PUMP       300.00     0  00:00              1.00
  JK-Pump-2            PUMP       140.66     0  06:14              0.47
  XR-Pump-1            PUMP        95.00     0  00:00              1.00
  XR-Pump-2            PUMP        95.00     0  01:30              1.00
  XR-Pump-3            PUMP        95.00     0  06:20              1.00
  XR-Pump-4            PUMP        95.00     0  01:30              1.00
  
  
  ***************************
  Flow Classification Summary
  ***************************
  
  -------------------------------------------------------------------------------------
                      Adjusted    ---------- Fraction of Time in Flow Class ---------- 
                       /Actual         Up    Down  Sub   Sup   Up    Down  Norm  Inlet 
  Conduit               Length    Dry  Dry   Dry   Crit  Crit  Crit  Crit  Ltd   Ctrl  
  -------------------------------------------------------------------------------------
  WS02003066WSF200        1.00   0.07  0.00  0.00  0.00  0.93  0.00  0.00  0.60  0.00
  WS02006287WS02006284    1.00   0.04  0.01  0.00  0.56  0.39  0.00  0.00  0.68  0.00
  WS02006284WS02006280    1.00   0.05  0.00  0.00  0.00  0.00  0.00  0.95  0.00  0.00
  WS02006280WS02006229    1.00   0.05  0.00  0.00  0.00  0.00  0.00  0.95  0.00  0.00
  WS02006229WS02006228    1.00   0.00  0.00  0.00  0.99  0.00  0.00  0.01  0.00  0.00
  WS02006256WS02006235    1.00   0.00  0.00  0.00  1.00  0.00  0.00  0.00  0.00  0.00
  WS02006253WS02006251    1.00   0.03  0.01  0.00  0.95  0.00  0.00  0.00  0.00  0.00
  WS02006252WS02006251    1.00   0.07  0.00  0.00  0.00  0.00  0.93  0.00  0.00  0.00
  WS02006251WS02006249    1.00   0.00  0.00  0.00  1.00  0.00  0.00  0.00  0.24  0.00
  WS02006249WS02006248    1.00   0.00  0.02  0.00  0.91  0.00  0.06  0.00  0.00  0.00
  WS02006248WS02006247    1.00   0.02  0.00  0.00  0.97  0.00  0.00  0.00  0.12  0.00
  WS02006247WS02006245    1.00   0.02  0.00  0.00  0.98  0.00  0.00  0.00  0.00  0.00
  WS02006245WS02006243    1.00   0.01  0.00  0.00  0.95  0.00  0.00  0.03  0.05  0.00
  WS02006243WS02006242    1.00   0.01  0.00  0.00  0.99  0.00  0.00  0.00  0.17  0.00
  WS02006242WS02006240    1.00   0.00  0.00  0.00  0.99  0.00  0.00  0.00  0.00  0.00
  WS02006240WS02006239    1.00   0.00  0.00  0.00  0.97  0.00  0.00  0.03  0.01  0.00
  WS02006239WS02006238    1.00   0.00  0.00  0.00  1.00  0.00  0.00  0.00  0.01  0.00
  WS02006238WS02006235    1.00   0.00  0.00  0.00  1.00  0.00  0.00  0.00  0.00  0.00
  WS02006235WS02006234    1.00   0.00  0.00  0.00  0.97  0.00  0.03  0.00  0.00  0.00
  WS02006234WS02006232    1.00   0.00  0.00  0.00  1.00  0.00  0.00  0.00  0.08  0.00
  WS02006232WS02006231    1.00   0.00  0.00  0.00  0.99  0.00  0.00  0.00  0.00  0.00
  WS02006231WS02006230    1.00   0.00  0.00  0.00  0.66  0.00  0.33  0.00  0.00  0.00
  WS02006230WS02006229    1.00   0.00  0.00  0.00  0.98  0.00  0.00  0.02  0.01  0.00
  WS02006228WS02006109    1.00   0.00  0.00  0.00  1.00  0.00  0.00  0.00  0.00  0.00
  WS02006116WS02004401    1.00   0.03  0.00  0.00  0.97  0.00  0.00  0.00  0.00  0.00
  WS02006115WS02006116    1.00   0.03  0.00  0.00  0.97  0.00  0.00  0.01  0.00  0.00
  WS02006113WS02006111    1.00   0.02  0.00  0.00  0.00  0.98  0.00  0.00  0.13  0.00
  WS02006112WS02006115    1.00   0.02  0.00  0.00  0.97  0.00  0.00  0.00  0.00  0.00
  WS02006111WS02006112    1.00   0.02  0.00  0.00  0.97  0.00  0.00  0.00  0.97  0.00
  WS02006110WS02006113    1.00   0.01  0.01  0.00  0.98  0.00  0.00  0.00  0.00  0.00
  WS02006109WS02006110    1.00   0.00  0.01  0.00  0.98  0.00  0.01  0.00  0.00  0.00
  WS02004411WS02004412    1.00   0.04  0.00  0.00  0.96  0.00  0.00  0.00  0.00  0.00
  WS02004401WS02004402    1.00   0.03  0.00  0.00  0.97  0.00  0.00  0.00  0.00  0.00
  WS02004413WS02003067    1.00   0.04  0.02  0.00  0.00  0.00  0.94  0.00  0.00  0.00
  WS02004412WS02004413    1.00   0.04  0.00  0.00  0.96  0.00  0.00  0.00  0.03  0.00
  WS02004410WS02004411    1.00   0.04  0.00  0.00  0.96  0.00  0.00  0.00  0.03  0.00
  WS02004409WS02004410    1.00   0.04  0.00  0.00  0.96  0.00  0.00  0.00  0.01  0.00
  WS02004407WS02004409    1.00   0.04  0.00  0.00  0.96  0.00  0.00  0.00  0.89  0.00
  WS02004406WS02004407    1.00   0.00  0.04  0.00  0.96  0.00  0.00  0.00  0.00  0.00
  WS02004405WS02004406    1.00   0.00  0.00  0.00  1.00  0.00  0.00  0.00  0.01  0.00
  WS02004404WS02004405    1.00   0.00  0.00  0.00  1.00  0.00  0.00  0.00  0.00  0.00
  WS02004403WS02004404    1.00   0.00  0.03  0.00  0.97  0.00  0.00  0.00  0.01  0.00
  WS02004402WS02004403    1.00   0.03  0.00  0.00  0.97  0.00  0.00  0.00  0.00  0.00
  WS02004139WS02001211    1.00   0.00  0.00  0.00  0.99  0.00  0.01  0.00  0.00  0.00
  WS02004138WS02004139    1.00   0.00  0.00  0.00  0.99  0.01  0.00  0.00  1.00  0.00
  WS02003067WS02003066    1.00   0.06  0.01  0.00  0.94  0.00  0.00  0.00  0.00  0.00
  WS02001213WS02003059    1.00   0.00  0.01  0.00  0.99  0.00  0.00  0.00  0.00  0.00
  WS02001212WS02001213    1.00   0.01  0.00  0.00  0.90  0.00  0.09  0.00  0.00  0.00
  WS02001211WS02001212    1.00   0.00  0.01  0.00  0.99  0.00  0.00  0.00  0.00  0.00
  WS02003072WS02003073    1.00   0.00  0.00  0.00  0.00  0.00  0.00  1.00  0.00  0.00
  WS02003069WS02003072    1.00   0.00  0.00  0.00  0.99  0.01  0.00  0.00  0.22  0.00
  WS02003060WS02003069    1.00   0.00  0.00  0.00  0.99  0.01  0.00  0.00  0.16  0.00
  WS02003059WS02003060    1.00   0.00  0.00  0.00  1.00  0.00  0.00  0.00  0.02  0.00
  HS02004901HS02004770    1.00   0.05  0.00  0.00  0.95  0.00  0.00  0.00  0.00  0.00
  HS02004876HS02004881    1.00   0.02  0.00  0.00  0.98  0.00  0.00  0.00  0.00  0.00
  HS02004870HS02004876    1.00   0.01  0.00  0.00  0.99  0.00  0.00  0.00  0.95  0.00
  HS02004842HS02004848    1.00   0.00  0.05  0.00  0.95  0.00  0.00  0.00  0.58  0.00
  HS02004837HS02004842    1.00   0.00  0.00  0.00  0.99  0.01  0.00  0.00  0.11  0.00
  HS02004830HS02004837    1.00   0.00  0.00  0.00  1.00  0.00  0.00  0.00  0.99  0.00
  HS02004824HS02004830    1.00   0.00  0.00  0.00  1.00  0.00  0.00  0.00  0.00  0.00
  HS02004817HS02004824    1.00   0.00  0.00  0.00  1.00  0.00  0.00  0.00  1.00  0.00
  HS02004770HS02004777    1.00   0.00  0.04  0.00  0.95  0.00  0.00  0.00  0.03  0.00
  HS02004799HS02004480    1.00   0.00  0.03  0.00  0.95  0.00  0.02  0.00  0.00  0.00
  HS02004792HS02004799    1.00   0.00  0.00  0.00  0.99  0.01  0.00  0.00  0.98  0.00
  HS02004788HS02004792    1.00   0.00  0.00  0.00  0.99  0.01  0.00  0.00  0.98  0.00
  HS02004785HS02004788    1.00   0.00  0.00  0.00  1.00  0.00  0.00  0.00  0.00  0.00
  HS02004777HS02004785    1.00   0.00  0.00  0.00  1.00  0.00  0.00  0.00  0.12  0.00
  HS02004480HS02004478    1.00   0.05  0.00  0.00  0.62  0.00  0.00  0.34  0.00  0.00
  HS02004479HS02004480    1.00   0.03  0.00  0.00  0.97  0.00  0.00  0.00  0.12  0.00
  HS02004862HS02004870    1.00   0.00  0.00  0.00  1.00  0.00  0.00  0.00  0.04  0.00
  HS02004848HS02004852    1.00   0.05  0.00  0.00  0.95  0.00  0.00  0.00  0.76  0.00
  HS02004856HS02004862    1.00   0.00  0.05  0.00  0.95  0.00  0.00  0.00  0.83  0.00
  HS02004852HS02004856    1.00   0.05  0.00  0.00  0.95  0.00  0.00  0.00  0.86  0.00
  HS02004802HS02004478    1.00   0.05  0.00  0.00  0.95  0.00  0.00  0.00  0.03  0.00
  HS02004478WS02006287    1.00   0.05  0.00  0.00  0.69  0.26  0.00  0.00  0.65  0.00
  HS02004817HS02004807    1.00   0.00  0.05  0.00  0.95  0.00  0.00  0.00  0.01  0.00
  HS02004807HS02004802    1.00   0.05  0.00  0.00  0.95  0.00  0.00  0.00  0.00  0.00
  YS02001759YS02001757    1.00   0.00  0.00  0.00  1.00  0.00  0.00  0.00  0.16  0.00
  YS02001762YS02001759    1.00   0.00  0.00  0.00  1.00  0.00  0.00  0.00  0.03  0.00
  YS02001765YS02001762    1.00   0.00  0.00  0.00  1.00  0.00  0.00  0.00  0.14  0.00
  YS02001770YS02001767    1.00   0.00  0.00  0.00  1.00  0.00  0.00  0.00  0.00  0.00
  YS02001774YS02001770    1.00   0.00  0.04  0.00  0.95  0.00  0.00  0.00  0.03  0.00
  YS02001779YS02001774    1.00   0.00  0.00  0.00  1.00  0.00  0.00  0.00  0.18  0.00
  YS02001649YS02001757    1.00   0.00  0.00  0.00  1.00  0.00  0.00  0.00  0.16  0.00
  YS02001767YS02001765    1.00   0.00  0.00  0.00  1.00  0.00  0.00  0.00  0.00  0.00
  YS02006561YS02001783    1.00   0.06  0.00  0.00  0.44  0.51  0.00  0.00  0.59  0.00
  YS02001783YS02001784    1.00   0.00  0.06  0.00  0.94  0.00  0.00  0.00  0.00  0.00
  YS02001784YS02001785    1.00   0.00  0.00  0.00  1.00  0.00  0.00  0.00  0.17  0.00
  YS02001788YS02001790    1.00   0.00  0.00  0.00  0.54  0.46  0.00  0.00  0.52  0.00
  YS02001790YS02001791    1.00   0.00  0.00  0.00  0.51  0.49  0.00  0.00  0.41  0.00
  YS02001791YS02001793    1.00   0.00  0.00  0.00  0.52  0.48  0.00  0.00  0.02  0.00
  YS02001910YS02001907    1.00   0.00  0.00  0.00  0.97  0.00  0.00  0.03  0.12  0.00
  YS02001786YS02001788    1.00   0.00  0.00  0.00  0.52  0.48  0.00  0.00  0.00  0.00
  YS02001915YS02001910    1.00   0.00  0.00  0.00  0.99  0.01  0.00  0.00  0.16  0.00
  YS02001918YS02001915    1.00   0.00  0.01  0.00  0.98  0.02  0.00  0.00  0.59  0.00
  YS02001923YS02001920    1.00   0.00  0.00  0.00  1.00  0.00  0.00  0.00  0.87  0.00
  YS02001926YS02001923    1.00   0.00  0.04  0.00  0.10  0.00  0.86  0.00  0.00  0.00
  YS02001929YS02001926    1.00   0.00  0.05  0.00  0.95  0.00  0.00  0.00  0.85  0.00
  YS02001920YS02001918    1.00   0.00  0.01  0.00  0.99  0.00  0.00  0.00  0.00  0.00
  YS02001629YS02163301    1.00   0.05  0.00  0.00  0.95  0.00  0.00  0.00  0.00  0.00
  YS02001619YS02001622    1.00   0.05  0.00  0.00  0.95  0.00  0.00  0.00  0.00  0.00
  YS02001622YS02001625    1.00   0.05  0.00  0.00  0.95  0.00  0.00  0.00  0.04  0.00
  YS02001625YS02001629    1.00   0.05  0.01  0.00  0.93  0.00  0.01  0.00  0.00  0.00
  YS02163301YS02001633    1.00   0.00  0.05  0.00  0.95  0.00  0.00  0.00  0.00  0.00
  YS02163601YS02164001    1.00   0.00  0.04  0.00  0.96  0.00  0.00  0.00  0.00  0.00
  YS02164001YS02001641    1.00   0.01  0.03  0.00  0.96  0.00  0.00  0.00  0.06  0.00
  YS02001641YS02001644    1.00   0.00  0.01  0.00  0.99  0.00  0.00  0.00  0.00  0.00
  YS02001647YS02001649    1.00   0.00  0.05  0.00  0.95  0.00  0.00  0.00  0.01  0.00
  YS02006553YS02006556    1.00   0.01  0.00  0.00  0.99  0.00  0.00  0.00  0.03  0.00
  YS02006556YS02006558    1.00   0.00  0.00  0.00  1.00  0.00  0.00  0.00  0.00  0.00
  YSB6556YSB1171          1.00   0.03  0.02  0.00  0.96  0.00  0.00  0.00  0.00  0.00
  YS02001907YS02006553    1.00   0.00  0.02  0.00  0.97  0.00  0.00  0.00  0.00  0.00
  YS02006558YS02006561    1.00   0.06  0.00  0.00  0.16  0.78  0.00  0.00  0.51  0.00
  YS02001633YS02163601    1.00   0.00  0.01  0.00  0.99  0.00  0.00  0.00  0.15  0.00
  YS02001644YS02001647    1.00   0.00  0.05  0.00  0.95  0.00  0.00  0.00  0.00  0.00
  YS02001745YS02001748    1.00   0.00  0.00  0.00  0.90  0.01  0.00  0.09  0.05  0.00
  YS02001748YS02001751    1.00   0.00  0.00  0.00  0.98  0.02  0.00  0.00  0.14  0.00
  YS02001751YS02001754    1.00   0.00  0.00  0.00  0.94  0.00  0.00  0.06  0.02  0.00
  YS02001754YS02001757    1.00   0.00  0.00  0.00  0.99  0.01  0.00  0.00  0.18  0.00
  YS02001882YS02001884    1.00   0.05  0.00  0.00  0.95  0.00  0.00  0.00  0.00  0.00
  YS02001884YS02001887    1.00   0.03  0.01  0.00  0.96  0.00  0.00  0.00  0.00  0.00
  YS02001890YS02001895    1.00   0.00  0.05  0.00  0.95  0.00  0.00  0.00  0.00  0.00
  YS02001895YS02001898    1.00   0.05  0.00  0.00  0.94  0.00  0.01  0.00  0.00  0.00
  YS02001898YS02001901    1.00   0.05  0.00  0.00  0.95  0.00  0.00  0.00  0.01  0.00
  YS02001901YS02001904    1.00   0.05  0.00  0.00  0.95  0.00  0.00  0.00  0.00  0.00
  YS02001904YS02001907    1.00   0.00  0.05  0.00  0.95  0.00  0.00  0.00  0.00  0.00
  YS02001887YS02001890    1.00   0.00  0.00  0.00  0.97  0.00  0.02  0.00  0.00  0.00
  YS02001652YS02001649    1.00   0.00  0.00  0.00  1.00  0.00  0.00  0.00  0.16  0.00
  YS02001655YS02001652    1.00   0.00  0.00  0.00  0.94  0.00  0.00  0.06  0.02  0.00
  YS02001658YS02001655    1.00   0.00  0.05  0.00  0.93  0.02  0.00  0.00  0.04  0.00
  YS02001661YS02001658    1.00   0.05  0.00  0.00  0.90  0.05  0.00  0.00  0.04  0.00
  YS02001664YS02001661    1.00   0.05  0.00  0.00  0.86  0.10  0.00  0.00  0.19  0.00
  YSB1154YSB6556          1.00   0.04  0.00  0.00  0.96  0.00  0.00  0.00  0.02  0.00
  YSB1174YSB1171          1.00   0.03  0.01  0.00  0.96  0.00  0.00  0.00  0.00  0.00
  YSB1171HS02004479       1.00   0.03  0.00  0.00  0.97  0.00  0.00  0.00  0.10  0.00
  HS02004881HS02006253    1.00   0.03  0.00  0.00  0.90  0.00  0.00  0.07  0.72  0.00
  YS02001793JiankangQianchi    1.00   0.00  0.00  0.00  0.69  0.31  0.00  0.00  0.13  0.00
  YS02001757CaochengTiaoxuchi    1.00   0.00  0.07  0.00  0.92  0.02  0.00  0.00  0.00  0.00
  WSF200WS02003060        1.00   0.00  0.07  0.00  0.57  0.37  0.00  0.00  0.05  0.00
  1                       1.00   0.00  0.00  0.00  0.00  1.00  0.00  0.00  0.46  0.00
  2                       1.00   0.69  0.00  0.00  0.00  0.31  0.00  0.00  0.02  0.00
  3                       1.00   0.06  0.00  0.00  0.00  0.94  0.00  0.00  0.25  0.00
  4                       1.00   1.00  0.00  0.00  0.00  0.00  0.00  0.00  0.00  0.00
  
  
  *************************
  Conduit Surcharge Summary
  *************************
  
  ----------------------------------------------------------------------------
                                                           Hours        Hours 
                         --------- Hours Full --------   Above Full   Capacity
  Conduit                Both Ends  Upstream  Dnstream   Normal Flow   Limited
  ----------------------------------------------------------------------------
  WS02006229WS02006228        2.54      2.65      2.54      5.73         2.54
  WS02006256WS02006235        6.34      6.34      6.91      3.53         0.01
  WS02006252WS02006251        0.90      0.90      1.02      0.99         0.01
  WS02006251WS02006249        0.01      0.01      0.01      0.89         0.01
  WS02006249WS02006248        0.01      0.01      0.01      5.57         0.01
  WS02006247WS02006245        0.01      0.01      0.01      5.62         0.01
  WS02006243WS02006242        0.01      0.01      1.69      0.01         0.01
  WS02006242WS02006240        0.41      0.41      2.07      1.01         0.01
  WS02006240WS02006239        0.62      0.62      0.82      0.01         0.01
  WS02006239WS02006238        2.11      2.11      2.20      0.77         0.78
  WS02006238WS02006235        2.16      2.16      2.33      0.01         0.01
  WS02006235WS02006234        0.89      0.89      1.79      6.18         0.01
  WS02006234WS02006232        1.16      1.16      2.45      0.01         0.01
  WS02006232WS02006231        0.42      0.42      2.45      0.01         0.01
  WS02006231WS02006230        0.01      0.01      0.60      6.35         0.01
  WS02006230WS02006229        3.26      5.68      3.26      6.43         3.26
  WS02006228WS02006109        2.59      2.89      2.59      5.81         2.59
  WS02006112WS02006115        0.01      0.01      1.32      0.01         0.01
  WS02006111WS02006112        0.01      0.01      5.73      0.01         0.01
  WS02006110WS02006113        0.01      0.01      2.75      0.01         0.01
  WS02006109WS02006110        1.08      1.08      2.89      1.09         0.01
  WS02004405WS02004406        0.01      0.01      0.01      1.24         0.01
  WS02004404WS02004405        0.01      0.13      0.01      6.25         0.01
  WS02004403WS02004404        0.01      0.01      0.13      0.01         0.01
  WS02003072WS02003073        0.01      0.01      0.01      5.80         0.01
  YS02001759YS02001757        5.98      5.98      6.04      0.01         0.01
  YS02001762YS02001759        5.96      5.96      5.98      0.01         0.01
  YS02001765YS02001762        5.94      5.94      5.96      0.01         0.01
  YS02001770YS02001767        5.92      5.92      5.92      0.09         0.86
  YS02001774YS02001770        5.88      5.88      5.95      0.01         0.01
  YS02001779YS02001774        5.73      5.73      5.95      0.01         0.01
  YS02001649YS02001757        5.96      5.96      6.04      0.01         0.01
  YS02001767YS02001765        5.92      5.92      5.94      0.01         0.01
  YS02006561YS02001783        0.01      0.01      1.22      0.01         0.01
  YS02001783YS02001784        1.22      1.22      1.28      0.88         0.82
  YS02001784YS02001785        1.23      1.28      1.23      2.03         1.22
  YS02001788YS02001790        1.21      1.21      2.59      0.01         0.01
  YS02001790YS02001791        2.59      2.59      2.71      0.01         0.01
  YS02001791YS02001793        2.71      2.71      2.98      0.01         0.01
  YS02001910YS02001907        0.83      0.83      1.43      0.01         0.01
  YS02001786YS02001788        1.21      1.23      1.21      1.64         1.21
  YS02001915YS02001910        0.44      0.44      0.83      0.01         0.01
  YS02001918YS02001915        0.01      0.01      0.44      0.01         0.01
  YS02001629YS02163301        5.87      5.87      5.91      0.01         0.01
  YS02001619YS02001622        5.53      5.53      5.58      0.01         0.01
  YS02001622YS02001625        5.58      5.58      5.76      0.01         0.01
  YS02001625YS02001629        5.53      5.53      5.76      0.01         0.01
  YS02163301YS02001633        5.91      5.91      5.95      0.01         0.01
  YS02163601YS02164001        5.94      5.94      5.96      0.01         0.01
  YS02164001YS02001641        5.94      5.94      5.94      0.01         0.02
  YS02001641YS02001644        5.94      5.94      5.95      1.05         1.30
  YS02001647YS02001649        5.75      5.75      5.96      0.01         0.01
  YS02006553YS02006556        1.11      1.11      1.50      0.01         0.01
  YS02006556YS02006558        1.27      1.27      1.58      0.01         0.01
  YS02001907YS02006553        2.04      2.04      2.24      0.01         0.01
  YS02006558YS02006561        0.65      1.07      0.65      1.88         0.65
  YS02001633YS02163601        5.93      5.93      5.96      0.01         0.01
  YS02001644YS02001647        5.75      5.75      5.95      0.01         0.01
  YS02001745YS02001748        0.01      0.01      4.89      0.01         0.01
  YS02001748YS02001751        5.34      5.34      5.51      0.01         0.01
  YS02001751YS02001754        5.51      5.51      5.73      0.01         0.01
  YS02001754YS02001757        5.75      5.75      6.04      0.01         0.01
  YS02001882YS02001884        0.47      0.47      0.55      0.01         0.01
  YS02001884YS02001887        0.66      0.66      0.71      0.01         0.01
  YS02001890YS02001895        0.40      0.40      0.85      0.01         0.01
  YS02001895YS02001898        0.36      0.36      0.40      0.01         0.01
  YS02001898YS02001901        0.42      0.42      0.65      0.01         0.01
  YS02001901YS02001904        0.61      0.61      0.65      0.01         0.01
  YS02001904YS02001907        0.61      0.61      1.53      0.01         0.01
  YS02001887YS02001890        0.75      0.75      0.80      0.01         0.01
  YS02001652YS02001649        5.75      5.75      5.96      0.01         0.01
  YS02001655YS02001652        5.58      5.58      5.75      0.01         0.01
  YS02001658YS02001655        5.04      5.04      5.58      0.01         0.01
  YS02001661YS02001658        0.20      0.20      5.04      0.01         0.01
  YS02001664YS02001661        0.01      0.01      1.10      0.01         0.01
  YS02001793JiankangQianchi        2.92      2.92      3.92      0.01         0.01
  YS02001757CaochengTiaoxuchi        5.17      5.17      6.04      0.01         0.01
  
  
  ***************
  Pumping Summary
  ***************
  
  ---------------------------------------------------------------------------------------------------------
                                                  Min       Avg       Max     Total     Power    % Time Off
                        Percent   Number of      Flow      Flow      Flow    Volume     Usage    Pump Curve
  Pump                 Utilized   Start-Ups       LPS       LPS       LPS  10^6 ltr     Kw-hr    Low   High
  ---------------------------------------------------------------------------------------------------------
  CC-Pump-1               14.89           1      0.00    162.83    200.00     0.720      1.12    0.0    0.0
  CC-Pump-2               72.67           1      0.00    196.43    200.00     4.011      5.31    0.0    9.4
  JK-Pump-1               89.36           2      0.00    261.31    300.00     5.221     44.05    0.0    0.0
  JK-Pump-2               14.89           1      0.00    111.53    140.66     0.469      9.20    0.0    0.0
  XR-Pump-1               34.04           2      0.00     80.65     95.00     0.827      5.07    0.0    0.0
  XR-Pump-2               63.82           1      0.00     92.93     95.00     1.653      7.50    0.0    0.0
  XR-Pump-3               21.27           1      0.00     86.14     95.00     0.541      2.85    0.0    0.0
  XR-Pump-4               82.96           1      0.00     94.73     95.00     2.194     10.34    0.0    0.0
  

  Analysis begun on:  Wed Jan  5 13:18:38 2022
  Analysis ended on:  Wed Jan  5 13:18:42 2022
  Total elapsed time: 00:00:04