
  EPA STORM WATER MANAGEMENT MODEL - VERSION 5.1 (Build 5.3.0.dev0)
  --------------------------------------------------------------

  WARNING 04: minimum elevation drop used for Conduit WS02004404WS02004405
  WARNING 03: negative offset ignored for Link YS02001904YS02001907
  
  *********************************************************
  NOTE: The summary statistics displayed in this report are
  based on results found at every computational time step,  
  not just on results from each reporting time step.
  *********************************************************
  
  ****************
  Analysis Options
  ****************
  Flow Units ............... LPS
  Process Models:
    Rainfall/Runoff ........ YES
    RDII ................... NO
    Snowmelt ............... NO
    Groundwater ............ NO
    Flow Routing ........... YES
    Ponding Allowed ........ NO
    Water Quality .......... NO
  Infiltration Method ...... HORTON
  Flow Routing Method ...... DYNWAVE
  Surcharge Method ......... EXTRAN
  Starting Date ............ 08/28/2015 08:00:00
  Ending Date .............. 08/28/2015 15:50:00
  Antecedent Dry Days ...... 8.0
  Report Time Step ......... 00:01:00
  Wet Time Step ............ 00:01:00
  Dry Time Step ............ 00:01:00
  Routing Time Step ........ 5.00 sec
  Variable Time Step ....... YES
  Maximum Trials ........... 8
  Number of Threads ........ 4
  Head Tolerance ........... 0.001500 m
  
  
  **************************        Volume         Depth
  Runoff Quantity Continuity     hectare-m            mm
  **************************     ---------       -------
  Total Precipitation ......         3.868         8.469
  Evaporation Loss .........         0.000         0.000
  Infiltration Loss ........         0.985         2.157
  Surface Runoff ...........         1.916         4.194
  Final Storage ............         0.968         2.119
  Continuity Error (%) .....        -0.017
  
  
  **************************        Volume        Volume
  Flow Routing Continuity        hectare-m      10^6 ltr
  **************************     ---------     ---------
  Dry Weather Inflow .......         0.616         6.165
  Wet Weather Inflow .......         1.915        19.148
  Groundwater Inflow .......         0.000         0.000
  RDII Inflow ..............         0.000         0.000
  External Inflow ..........         0.102         1.024
  External Outflow .........         1.580        15.799
  Flooding Loss ............         0.498         4.984
  Evaporation Loss .........         0.000         0.000
  Exfiltration Loss ........         0.000         0.000
  Initial Stored Volume ....         0.076         0.761
  Final Stored Volume ......         0.635         6.350
  Continuity Error (%) .....        -0.138
  
  
  *************************
  Highest Continuity Errors
  *************************
  Node YS02001774 (42.42%)
  Node HS02004842 (20.90%)
  Node YS02001884 (13.42%)
  Node YSB1171 (4.66%)
  Node HS02004817 (3.83%)
  
  
  ***************************
  Time-Step Critical Elements
  ***************************
  Link WS02006252WS02006251 (74.56%)
  Link 3 (18.87%)
  Link WS02006280WS02006229 (1.97%)
  Link WS02006238WS02006235 (1.27%)
  
  
  ********************************
  Highest Flow Instability Indexes
  ********************************
  Link WS02006113WS02006111 (39)
  Link YS02001774YS02001770 (32)
  Link YS02001779YS02001774 (32)
  Link WS02006111WS02006112 (28)
  Link YS02001765YS02001762 (27)
  
  
  *************************
  Routing Time Step Summary
  *************************
  Minimum Time Step           :     0.04 sec
  Average Time Step           :     0.84 sec
  Maximum Time Step           :     5.00 sec
  Percent in Steady State     :    -0.00
  Average Iterations per Step :     4.15
  Percent Not Converging      :    19.49
  
  
  ***************************
  Subcatchment Runoff Summary
  ***************************
  
  ------------------------------------------------------------------------------------------------------------------------------
                            Total      Total      Total      Total     Imperv       Perv      Total       Total     Peak  Runoff
                           Precip      Runon       Evap      Infil     Runoff     Runoff     Runoff      Runoff   Runoff   Coeff
  Subcatchment                 mm         mm         mm         mm         mm         mm         mm    10^6 ltr      LPS
  ------------------------------------------------------------------------------------------------------------------------------
  sub0                       8.47       0.00       0.00       0.59       6.61       0.00       6.61        0.01     1.03   0.781
  sub1                       8.47       0.00       0.00       0.93       6.28       0.00       6.28        0.04     7.43   0.741
  sub2                       8.47       0.00       0.00       3.13       4.43       0.00       4.43        0.04     7.08   0.523
  sub3                       8.47       0.00       0.00       3.13       4.39       0.00       4.39        0.10    15.91   0.518
  sub4                       8.47       0.00       0.00       0.93       6.13       0.00       6.13        0.13    19.23   0.724
  sub5                       8.47       0.00       0.00       0.59       6.56       0.00       6.56        0.07    13.22   0.775
  sub7                       8.47       0.00       0.00       0.76       6.45       0.00       6.45        0.02     4.04   0.762
  sub8                       8.47       0.00       0.00       0.76       6.44       0.00       6.44        0.04     7.54   0.761
  sub9                       8.47       0.00       0.00       0.76       6.44       0.00       6.44        0.03     5.65   0.760
  sub10                      8.47       0.00       0.00       0.68       6.50       0.00       6.50        0.07    12.87   0.767
  sub11                      8.47       0.00       0.00       0.68       6.52       0.00       6.52        0.08    13.93   0.769
  sub12                      8.47       0.00       0.00       1.10       6.18       0.00       6.18        0.05    10.23   0.730
  sub14                      8.47       0.00       0.00       0.76       6.44       0.00       6.44        0.06    11.15   0.760
  sub15                      8.47       0.00       0.00       2.54       4.95       0.00       4.95        0.09    15.40   0.584
  sub16                      8.47       0.00       0.00       2.79       4.76       0.00       4.76        0.05     9.37   0.561
  sub17                      8.47       0.00       0.00       2.71       4.82       0.00       4.82        0.04     7.75   0.570
  sub22                      8.47       0.00       0.00       3.64       4.04       0.00       4.04        0.26    47.08   0.477
  sub23                      8.47       0.00       0.00       3.13       4.46       0.00       4.46        0.21    39.46   0.527
  sub60                      8.47       0.00       0.00       1.02       4.75       0.00       4.75        1.44   149.28   0.561
  sub61                      8.47       0.00       0.00       1.44       4.95       0.00       4.95        1.53   180.35   0.585
  sub62                      8.47       0.00       0.00       0.68       5.35       0.00       5.35        1.64   187.08   0.631
  sub63                      8.47       0.00       0.00       2.46       4.37       0.00       4.37        1.32   164.01   0.516
  sub64                      8.47       0.00       0.00       1.27       4.55       0.00       4.55        1.38   141.99   0.537
  sub65                      8.47       0.00       0.00       1.10       4.62       0.00       4.62        1.42   144.28   0.545
  sub66                      8.47       0.00       0.00       2.46       3.94       0.00       3.94        1.21   129.20   0.465
  sub67                      8.47       0.00       0.00       0.68       5.75       0.00       5.75        1.78   226.25   0.679
  sub68                      8.47       0.00       0.00       1.19       5.24       0.00       5.24        1.61   196.27   0.618
  sub69                      8.47       0.00       0.00       1.27       5.53       0.00       5.53        1.29   176.57   0.653
  sub70                      8.47       5.64       0.00       4.80       7.11       0.00       7.11        1.63   167.69   0.504
  sub71                      8.47       0.00       0.00       0.68       5.16       0.00       5.16        1.22   132.38   0.610
  sub72                      8.47       0.00       0.00       0.59       3.87       0.00       3.87        0.79    64.98   0.457
  sub73                      8.47       6.92       0.00       5.23       7.51       0.00       7.51        1.76   149.38   0.488
  sub74                      8.47       0.00       0.00       6.35       1.66       0.00       1.66        0.66    93.55   0.196
  
  
  ******************
  Node Depth Summary
  ******************
  
  ---------------------------------------------------------------------------------
                                 Average  Maximum  Maximum  Time of Max    Reported
                                   Depth    Depth      HGL   Occurrence   Max Depth
  Node                 Type       Meters   Meters   Meters  days hr:min      Meters
  ---------------------------------------------------------------------------------
  WS02001211           JUNCTION     0.61     0.64     5.48     0  02:40        0.64
  WS02001212           JUNCTION     0.35     0.38     5.45     0  02:39        0.38
  WS02001213           JUNCTION     0.58     0.65     5.41     0  02:38        0.65
  WS02003069           JUNCTION     0.42     0.51     5.10     0  02:37        0.51
  WS02003072           JUNCTION     0.49     0.57     4.94     0  02:38        0.57
  WS02003073           JUNCTION     0.29     0.35     4.41     0  02:39        0.35
  WS02003060           JUNCTION     0.37     0.45     5.38     0  02:37        0.45
  WS02003066           JUNCTION     0.24     0.30     5.85     0  02:35        0.30
  WS02003059           JUNCTION     0.64     0.72     5.40     0  02:37        0.72
  WS02003067           JUNCTION     0.58     0.70     6.02     0  02:35        0.70
  WS02004401           JUNCTION     0.68     0.85     6.85     0  02:32        0.85
  WS02004402           JUNCTION     0.72     0.87     6.83     0  02:31        0.87
  WS02004403           JUNCTION     0.74     0.89     6.82     0  02:32        0.89
  WS02004404           JUNCTION     0.81     0.96     6.81     0  02:32        0.96
  WS02004406           JUNCTION     0.82     0.95     6.78     0  02:32        0.95
  WS02004409           JUNCTION     0.50     0.67     6.44     0  02:34        0.67
  WS02004410           JUNCTION     0.52     0.68     6.40     0  02:34        0.68
  WS02004411           JUNCTION     0.54     0.69     6.37     0  02:34        0.69
  WS02004412           JUNCTION     0.55     0.70     6.34     0  02:34        0.70
  WS02004413           JUNCTION     0.71     0.86     6.33     0  02:35        0.86
  WS02004405           JUNCTION     0.81     0.95     6.80     0  02:32        0.95
  WS02006109           JUNCTION     0.76     0.96     7.58     0  02:29        0.96
  WS02006110           JUNCTION     0.76     0.92     7.50     0  02:29        0.92
  WS02006111           JUNCTION     0.22     0.28     6.99     0  02:30        0.28
  WS02006112           JUNCTION     0.85     1.04     6.93     0  02:57        1.04
  WS02006113           JUNCTION     0.35     0.45     7.34     0  02:30        0.45
  WS02006115           JUNCTION     0.58     0.75     6.89     0  02:31        0.75
  WS02006116           JUNCTION     0.66     0.83     6.87     0  02:32        0.83
  WS02006230           JUNCTION     0.73     1.00     7.74     0  02:30        1.00
  WS02006231           JUNCTION     0.49     0.66     7.78     0  02:30        0.66
  WS02006232           JUNCTION     0.63     0.78     7.82     0  02:31        0.78
  WS02006234           JUNCTION     0.54     0.71     7.87     0  02:32        0.71
  WS02006235           JUNCTION     0.57     0.74     7.90     0  02:32        0.74
  WS02006238           JUNCTION     0.60     0.77     7.91     0  02:32        0.77
  WS02006240           JUNCTION     0.49     0.66     7.96     0  02:33        0.66
  WS02006242           JUNCTION     0.54     0.72     7.99     0  02:33        0.72
  WS02006243           JUNCTION     0.42     0.59     8.01     0  02:33        0.59
  WS02006245           JUNCTION     0.40     0.55     8.03     0  02:34        0.55
  WS02006247           JUNCTION     0.42     0.56     8.06     0  02:34        0.56
  WS02006248           JUNCTION     0.36     0.49     8.07     0  02:34        0.49
  WS02006249           JUNCTION     0.40     0.51     8.10     0  02:34        0.51
  WS02006239           JUNCTION     0.55     0.73     7.94     0  02:33        0.73
  WS02006251           JUNCTION     0.38     0.48     8.15     0  02:34        0.48
  WS02006252           JUNCTION     0.32     0.35     8.59     0  02:01        0.35
  WS02006253           JUNCTION     0.41     0.50     8.15     0  02:34        0.50
  WS02006256           JUNCTION     1.04     1.15     8.09     0  00:00        1.12
  WS02004138           JUNCTION     0.13     0.14     7.39     0  01:42        0.14
  WS02004407           JUNCTION     0.23     0.29     6.61     0  02:32        0.29
  WS02006228           JUNCTION     0.76     1.00     7.65     0  02:29        1.00
  WS02006229           JUNCTION     0.74     1.00     7.69     0  02:29        1.00
  WS02006280           JUNCTION     0.06     0.14     8.41     0  02:27        0.14
  WS02006284           JUNCTION     0.36     0.48     8.88     0  02:27        0.48
  WS02006287           JUNCTION     0.09     0.21     9.16     0  02:27        0.21
  WSF200               JUNCTION     0.23     0.31     5.54     0  02:35        0.31
  HS02004901           JUNCTION     0.12     0.22    10.04     0  02:25        0.22
  HS02004881           JUNCTION     0.01     0.02     9.05     0  02:26        0.02
  HS02004876           JUNCTION     0.04     0.10     9.13     0  02:25        0.10
  HS02004870           JUNCTION     0.01     0.04     9.33     0  02:26        0.04
  HS02004862           JUNCTION     0.02     0.05     9.43     0  02:27        0.05
  HS02004856           JUNCTION     0.08     0.11     9.53     0  02:26        0.11
  HS02004852           JUNCTION     0.01     0.03     9.54     0  02:27        0.03
  HS02004848           JUNCTION     0.01     0.03     9.63     0  02:26        0.03
  HS02004842           JUNCTION     0.33     0.36     9.63     0  02:26        0.36
  HS02004837           JUNCTION     0.03     0.05     9.63     0  02:26        0.05
  HS02004830           JUNCTION     0.04     0.06     9.53     0  02:26        0.06
  HS02004824           JUNCTION     0.02     0.04     9.45     0  02:27        0.04
  HS02004817           JUNCTION     0.43     0.53     9.37     0  02:27        0.53
  HS02004807           JUNCTION     0.12     0.20     9.37     0  02:27        0.20
  HS02004802           JUNCTION     0.16     0.24     9.37     0  02:27        0.24
  HS02004799           JUNCTION     0.11     0.25     9.46     0  02:25        0.25
  HS02004792           JUNCTION     0.03     0.09     9.62     0  02:25        0.09
  HS02004788           JUNCTION     0.02     0.07     9.97     0  02:26        0.07
  HS02004785           JUNCTION     0.04     0.13    10.03     0  02:25        0.13
  HS02004777           JUNCTION     0.14     0.24    10.04     0  02:25        0.24
  HS02004770           JUNCTION     0.11     0.21    10.04     0  02:25        0.21
  HS02004480           JUNCTION     0.07     0.19     9.43     0  02:26        0.19
  HS02004479           JUNCTION     0.11     0.23     9.43     0  02:25        0.23
  HS02004478           JUNCTION     0.06     0.12     9.35     0  02:26        0.12
  YS02001745           JUNCTION     0.62     0.85     8.37     0  04:01        0.85
  YS02001748           JUNCTION     1.00     1.30     8.38     0  03:59        1.29
  YS02001751           JUNCTION     1.18     1.78     8.66     0  03:03        1.50
  YS02001754           JUNCTION     1.44     1.83     8.44     0  03:03        1.78
  YS02001762           JUNCTION     1.64     2.02     8.42     0  03:59        1.99
  YS02001765           JUNCTION     1.59     1.96     8.41     0  03:59        1.93
  YS02001767           JUNCTION     1.55     1.92     8.40     0  03:59        1.90
  YS02001770           JUNCTION     1.55     1.90     8.40     0  03:57        1.88
  YS02001774           JUNCTION     1.62     1.96     8.39     0  04:07        1.95
  YS02001779           JUNCTION     1.37     1.68     8.37     0  02:54        1.68
  YS02001882           JUNCTION     0.35     0.64     7.36     0  03:02        0.63
  YS02001884           JUNCTION     0.45     0.73     7.35     0  03:02        0.73
  YS02001759           JUNCTION     1.67     2.05     8.42     0  03:59        2.03
  YS02001887           JUNCTION     0.53     0.81     7.35     0  03:02        0.81
  YS02001890           JUNCTION     0.56     0.84     7.35     0  03:03        0.84
  YS02001898           JUNCTION     0.32     0.60     7.33     0  03:01        0.59
  YS02001901           JUNCTION     0.44     0.72     7.33     0  03:00        0.72
  YS02001904           JUNCTION     0.42     0.70     7.33     0  03:00        0.70
  YS02001907           JUNCTION     0.75     1.07     7.36     0  02:57        1.06
  YS02001910           JUNCTION     0.54     0.83     7.33     0  03:01        0.83
  YS02001915           JUNCTION     0.34     0.62     7.33     0  03:01        0.61
  YS02001918           JUNCTION     0.11     0.26     7.33     0  03:02        0.26
  YS02001619           JUNCTION     1.15     1.59     8.51     0  03:15        1.47
  YS02001629           JUNCTION     1.50     1.85     8.40     0  03:21        1.83
  YS02001641           JUNCTION     1.61     1.94     8.37     0  03:48        1.92
  YS02001644           JUNCTION     1.61     1.92     8.35     0  03:41        1.92
  YS02001652           JUNCTION     1.45     2.16     8.76     0  02:56        1.90
  YS02001655           JUNCTION     1.21     2.20     9.05     0  02:54        1.71
  YS02001920           JUNCTION     0.21     0.33     7.34     0  03:02        0.33
  YS02001923           JUNCTION     0.08     0.12     7.38     0  03:02        0.12
  YS02001926           JUNCTION     0.17     0.23     7.67     0  03:02        0.23
  YS02001929           JUNCTION     0.08     0.12     7.81     0  03:01        0.12
  YS02001658           JUNCTION     0.95     2.24     9.38     0  03:14        1.47
  YS02001661           JUNCTION     0.73     1.99     9.39     0  03:51        1.24
  YS02001664           JUNCTION     0.31     0.57     8.49     0  03:51        0.56
  YS02001622           JUNCTION     1.17     1.56     8.47     0  03:15        1.49
  YS02001633           JUNCTION     1.59     1.96     8.41     0  03:26        1.92
  YS02001649           JUNCTION     1.65     2.05     8.44     0  02:56        2.04
  YS02001757           JUNCTION     1.77     2.16     8.42     0  03:59        2.14
  YS02001895           JUNCTION     0.32     0.60     7.34     0  03:01        0.59
  YS02001625           JUNCTION     1.46     1.78     8.38     0  03:11        1.78
  YS02163301           JUNCTION     1.53     1.89     8.41     0  03:26        1.86
  YS02163601           JUNCTION     1.65     1.99     8.39     0  03:48        1.97
  YS02164001           JUNCTION     1.59     1.92     8.38     0  03:47        1.91
  YS02001647           JUNCTION     1.44     1.80     8.41     0  03:55        1.78
  YSB1154              JUNCTION     0.25     0.38     9.43     0  02:26        0.38
  YSB6556              JUNCTION     0.14     0.26     9.43     0  02:26        0.26
  YSB1174              JUNCTION     0.20     0.32     9.43     0  02:26        0.32
  YSB1171              JUNCTION     0.40     0.53     9.43     0  02:25        0.53
  YS02006553           JUNCTION     0.75     1.06     7.35     0  03:00        1.05
  YS02006561           JUNCTION     0.18     0.37     7.03     0  02:57        0.35
  YS02006556           JUNCTION     0.73     1.03     7.34     0  03:02        1.01
  YS02006558           JUNCTION     0.77     1.07     7.33     0  03:00        1.04
  YS02001783           JUNCTION     0.35     1.22     7.36     0  02:56        0.91
  YS02001784           JUNCTION     0.39     1.38     7.45     0  02:56        0.92
  YS02001786           JUNCTION     0.36     1.47     7.50     0  02:56        0.89
  YS02001788           JUNCTION     0.31     1.56     7.53     0  02:56        0.88
  YS02001790           JUNCTION     0.43     1.67     7.31     0  02:54        1.13
  YS02001791           JUNCTION     0.42     1.49     6.96     0  02:53        1.20
  YS02001793           JUNCTION     0.59     2.74     7.57     0  02:50        1.79
  WS02004139           JUNCTION     0.55     0.58     5.49     0  02:40        0.58
  WSC                  OUTFALL      0.29     0.35     1.02     0  02:39        0.35
  3                    OUTFALL      0.08     0.13     6.13     0  00:00        0.12
  4                    OUTFALL      0.00     0.01     7.01     0  02:34        0.01
  5                    OUTFALL      0.00     0.00     5.00     0  00:00        0.00
  JK-storage           STORAGE      2.27     5.80     6.60     0  02:55        5.80
  CC-storage           STORAGE      1.00     1.36     8.36     0  04:06        1.36
  XR-storage           STORAGE      7.64     7.72     5.72     0  00:51        7.72
  
  
  *******************
  Node Inflow Summary
  *******************
  
  -------------------------------------------------------------------------------------------------
                                  Maximum  Maximum                  Lateral       Total        Flow
                                  Lateral    Total  Time of Max      Inflow      Inflow     Balance
                                   Inflow   Inflow   Occurrence      Volume      Volume       Error
  Node                 Type           LPS      LPS  days hr:min    10^6 ltr    10^6 ltr     Percent
  -------------------------------------------------------------------------------------------------
  WS02001211           JUNCTION      7.35   198.37     0  03:23       0.207           5       0.647
  WS02001212           JUNCTION      0.00   199.19     0  03:23           0        4.97       0.323
  WS02001213           JUNCTION      0.00   199.87     0  03:22           0        4.95       0.422
  WS02003069           JUNCTION      0.32   747.84     0  02:37     0.00902        13.1       0.205
  WS02003072           JUNCTION      0.00   747.84     0  02:38           0        13.1       0.255
  WS02003073           JUNCTION      1.82   749.66     0  02:38      0.0514        13.1       0.284
  WS02003060           JUNCTION     16.53   747.52     0  02:36       0.466        13.2       0.195
  WS02003066           JUNCTION      0.00   534.39     0  02:35           0         7.8       0.056
  WS02003059           JUNCTION      0.00   201.15     0  03:21           0        4.93       0.758
  WS02003067           JUNCTION      0.00   534.38     0  02:35           0        7.81       0.119
  WS02004401           JUNCTION      0.00   534.85     0  02:31           0        8.04       0.265
  WS02004402           JUNCTION      0.00   534.79     0  02:31           0        8.02       0.250
  WS02004403           JUNCTION      0.00   534.71     0  02:32           0           8       0.228
  WS02004404           JUNCTION      0.16   534.84     0  02:32     0.00457        7.99       0.172
  WS02004406           JUNCTION      0.00   534.87     0  02:32           0        7.96       0.419
  WS02004409           JUNCTION      0.00   534.80     0  02:32           0        7.91       0.204
  WS02004410           JUNCTION      0.00   534.62     0  02:33           0         7.9       0.231
  WS02004411           JUNCTION      0.00   534.50     0  02:33           0        7.88       0.237
  WS02004412           JUNCTION      0.00   534.43     0  02:34           0        7.86       0.256
  WS02004413           JUNCTION      0.00   534.39     0  02:34           0        7.84       0.380
  WS02004405           JUNCTION      0.04   534.82     0  02:32     0.00107        7.98       0.257
  WS02006109           JUNCTION      1.23   528.28     0  02:29      0.0347        8.13       0.271
  WS02006110           JUNCTION      0.00   528.29     0  02:30           0         8.1       0.243
  WS02006111           JUNCTION      0.00   548.37     0  02:30           0        8.07       0.056
  WS02006112           JUNCTION      7.75   538.53     0  02:30      0.0414        8.11       0.360
  WS02006113           JUNCTION      0.00   528.49     0  02:30           0        8.08       0.118
  WS02006115           JUNCTION      0.00   535.55     0  02:29           0        8.08       0.247
  WS02006116           JUNCTION      0.00   535.02     0  02:30           0        8.06       0.235
  WS02006230           JUNCTION     10.28   342.48     0  03:12        0.29        6.82       0.193
  WS02006231           JUNCTION      0.00   330.67     0  03:12           0        6.54       0.172
  WS02006232           JUNCTION      0.00   330.52     0  03:12           0        6.56       0.246
  WS02006234           JUNCTION      0.00   329.35     0  03:12           0        6.56       0.123
  WS02006235           JUNCTION      0.00   328.73     0  03:12           0         6.6       0.156
  WS02006238           JUNCTION      0.00   240.66     0  02:39           0        4.42       0.174
  WS02006240           JUNCTION      0.00   240.25     0  02:39           0        4.42       0.262
  WS02006242           JUNCTION      0.00   240.01     0  02:39           0        4.42       0.318
  WS02006243           JUNCTION      0.00   239.62     0  02:38           0        4.42       0.178
  WS02006245           JUNCTION      0.00   239.39     0  02:37           0        4.43       0.177
  WS02006247           JUNCTION      0.00   239.19     0  02:36           0        4.43       0.153
  WS02006248           JUNCTION      0.00   239.33     0  02:29           0        4.44       0.101
  WS02006249           JUNCTION      0.00   240.18     0  02:27           0        4.45       0.220
  WS02006239           JUNCTION      0.00   240.48     0  02:39           0        4.42       0.258
  WS02006251           JUNCTION      0.08   241.07     0  02:26     0.00217        4.46       0.196
  WS02006252           JUNCTION      0.00   200.00     0  02:01           0        4.23       0.010
  WS02006253           JUNCTION      1.03    41.74     0  02:26     0.00535       0.235       1.645
  WS02006256           JUNCTION      0.00   300.00     0  00:00           0        4.92       0.057
  WS02004138           JUNCTION      0.00   190.00     0  01:40           0        4.82       0.068
  WS02004407           JUNCTION      0.00   534.82     0  02:32           0        7.92       0.092
  WS02006228           JUNCTION      0.00   527.06     0  02:29           0        8.11       0.191
  WS02006229           JUNCTION      0.00   527.03     0  02:29           0        8.12       0.149
  WS02006280           JUNCTION      0.00   204.81     0  02:27           0        1.31       0.005
  WS02006284           JUNCTION      0.10   204.80     0  02:27      0.0027        1.31       0.088
  WS02006287           JUNCTION      0.00   204.70     0  02:27           0        1.31       0.053
  WSF200               JUNCTION      0.00   534.39     0  02:35           0         7.8       0.055
  HS02004901           JUNCTION      9.37     9.37     0  02:23      0.0498      0.0501       3.647
  HS02004881           JUNCTION      4.04    40.76     0  02:26      0.0217        0.23       0.122
  HS02004876           JUNCTION      7.43    36.75     0  02:26      0.0417       0.209       0.259
  HS02004870           JUNCTION      7.54    29.42     0  02:26      0.0411       0.167       0.066
  HS02004862           JUNCTION      7.28    22.06     0  02:26      0.0469       0.126       0.137
  HS02004856           JUNCTION      5.65    14.84     0  02:26       0.031      0.0805       1.824
  HS02004852           JUNCTION      0.00     9.33     0  02:26           0      0.0496       0.109
  HS02004848           JUNCTION     15.91    15.91     0  02:26      0.0988      0.0988       0.047
  HS02004842           JUNCTION      0.00     6.79     0  02:52           0      0.0622      26.416
  HS02004837           JUNCTION     19.22    25.66     0  02:25       0.251         0.3       0.272
  HS02004830           JUNCTION      0.15    25.80     0  02:26     0.00423        0.29       0.427
  HS02004824           JUNCTION     19.28    44.91     0  02:27       0.129       0.418       0.129
  HS02004817           JUNCTION      0.60    45.51     0  02:27      0.0169       0.435       3.988
  HS02004807           JUNCTION     13.93    58.94     0  02:27      0.0757       0.494       0.884
  HS02004802           JUNCTION      0.00    59.00     0  02:28           0       0.491       0.809
  HS02004799           JUNCTION     11.15   123.20     0  02:25      0.0613       0.713       0.360
  HS02004792           JUNCTION     47.36   112.13     0  02:24       0.263       0.652       0.064
  HS02004788           JUNCTION     17.07    65.26     0  02:25       0.132        0.39       0.102
  HS02004785           JUNCTION      0.15    48.39     0  02:25     0.00423       0.259       0.188
  HS02004777           JUNCTION      0.03    48.40     0  02:24    0.000846        0.26       2.037
  HS02004770           JUNCTION     39.46    48.64     0  02:23       0.213       0.261       1.203
  HS02004480           JUNCTION      0.00   146.07     0  02:25           0       0.837       0.127
  HS02004479           JUNCTION      0.00    23.09     0  02:27           0       0.137       0.537
  HS02004478           JUNCTION      0.00   204.69     0  02:26           0        1.31       0.031
  YS02001745           JUNCTION    149.28   245.82     0  03:11        1.44        1.45       0.732
  YS02001748           JUNCTION      0.04   362.37     0  03:11     0.00127        1.44       1.619
  YS02001751           JUNCTION      0.01   371.92     0  02:55     0.00031        1.41       1.654
  YS02001754           JUNCTION      0.26   233.38     0  02:56     0.00733        1.39       1.817
  YS02001762           JUNCTION      0.00   206.24     0  02:57           0        1.56       1.371
  YS02001765           JUNCTION      0.00   202.90     0  02:57           0        1.57       1.586
  YS02001767           JUNCTION      0.54   200.25     0  02:57      0.0151        1.59       2.317
  YS02001770           JUNCTION    187.24   197.33     0  02:57        1.65        1.66       1.963
  YS02001774           JUNCTION      0.00    32.68     0  01:57           0      0.0597      73.658
  YS02001779           JUNCTION      0.01    19.40     0  02:47    0.000141      0.0268     130.113
  YS02001882           JUNCTION      0.00    17.27     0  02:55           0      0.0128      18.042
  YS02001884           JUNCTION      0.00    23.84     0  02:56           0      0.0407      15.494
  YS02001759           JUNCTION    180.39   384.95     0  02:57        1.53        3.06       0.757
  YS02001887           JUNCTION    226.70   246.78     0  02:55        1.79        1.81       0.432
  YS02001890           JUNCTION      0.00   233.20     0  03:03           0        1.77       0.481
  YS02001898           JUNCTION      0.00   245.55     0  03:03           0        1.76       0.154
  YS02001901           JUNCTION      0.00   241.18     0  03:00           0        1.76       0.352
  YS02001904           JUNCTION      0.00   242.65     0  03:04           0        1.75       0.325
  YS02001907           JUNCTION      0.00   482.32     0  03:03           0        3.82       0.595
  YS02001910           JUNCTION      0.00   222.59     0  03:03           0        2.08       0.527
  YS02001915           JUNCTION    132.40   211.77     0  03:03        1.22        2.08       0.253
  YS02001918           JUNCTION      0.00    75.44     0  03:03           0       0.866       0.176
  YS02001619           JUNCTION    129.20   129.20     0  03:01        1.21        1.21       0.964
  YS02001629           JUNCTION      0.00   220.92     0  02:53           0        1.13       2.541
  YS02001641           JUNCTION      0.00   317.35     0  03:04           0        2.45       0.872
  YS02001644           JUNCTION    142.03   454.48     0  03:03        1.38        4.04       0.652
  YS02001652           JUNCTION      0.00   231.82     0  03:06           0        1.27       1.897
  YS02001655           JUNCTION      0.15   397.99     0  02:54     0.00434        1.29       1.809
  YS02001920           JUNCTION      2.87    67.64     0  03:02      0.0809       0.868       0.287
  YS02001923           JUNCTION      0.04    64.78     0  03:02     0.00106       0.788       0.052
  YS02001926           JUNCTION      0.05    64.97     0  03:01     0.00147       0.789       0.356
  YS02001929           JUNCTION     64.98    64.98     0  03:01       0.788       0.788       0.051
  YS02001658           JUNCTION      0.00   544.05     0  03:13           0        1.39       1.475
  YS02001661           JUNCTION      0.00   471.75     0  03:47           0        2.04       0.413
  YS02001664           JUNCTION    164.01   393.34     0  03:47        1.32        1.96       0.271
  YS02001622           JUNCTION      0.00   164.65     0  02:54           0         1.2       2.667
  YS02001633           JUNCTION    144.48   318.02     0  03:04        1.43         2.5       1.304
  YS02001649           JUNCTION      0.00   612.46     0  02:57           0        3.93       0.953
  YS02001757           JUNCTION      0.00  1100.79     0  03:02           0        8.02       1.162
  YS02001895           JUNCTION      0.00   237.51     0  02:56           0        1.76       0.240
  YS02001625           JUNCTION      0.00   221.18     0  02:53           0        1.16       3.447
  YS02163301           JUNCTION      0.00   178.86     0  03:04           0         1.1       2.230
  YS02163601           JUNCTION      0.11   317.80     0  03:04      0.0031        2.47       1.233
  YS02164001           JUNCTION      0.00   317.72     0  03:04           0        2.45       0.830
  YS02001647           JUNCTION      0.00   454.18     0  03:03           0        2.87       0.997
  YSB1154              JUNCTION     13.22    13.22     0  02:24      0.0743      0.0752       1.964
  YSB6556              JUNCTION      0.00    13.14     0  02:25           0      0.0759       1.671
  YSB1174              JUNCTION     10.23    10.23     0  02:22       0.054      0.0546       2.413
  YSB1171              JUNCTION      0.00    23.08     0  02:25           0       0.136       4.884
  YS02006553           JUNCTION      0.00   457.09     0  03:04           0        3.81       0.385
  YS02006561           JUNCTION      0.00   684.94     0  03:00           0        5.39      -0.000
  YS02006556           JUNCTION      0.00   468.54     0  03:03           0        3.81       0.282
  YS02006558           JUNCTION    197.15   668.10     0  03:02        1.63        5.42       0.101
  YS02001783           JUNCTION      0.00   639.39     0  03:03           0        5.39       0.037
  YS02001784           JUNCTION      1.06   641.07     0  03:05      0.0299        5.42       0.058
  YS02001786           JUNCTION      0.06   640.22     0  03:05     0.00159        5.42       0.051
  YS02001788           JUNCTION      0.07   640.17     0  03:04       0.002        5.42       0.030
  YS02001790           JUNCTION      0.15   639.16     0  03:03     0.00437        5.42       0.038
  YS02001791           JUNCTION      0.00   639.25     0  03:03           0        5.42       0.019
  YS02001793           JUNCTION      0.00   694.21     0  02:50           0        5.42       0.005
  WS02004139           JUNCTION      0.32   190.32     0  01:42     0.00905        4.82       0.637
  WSC                  OUTFALL       0.00   749.65     0  02:39           0        13.1       0.000
  3                    OUTFALL       0.00   250.55     0  00:00           0        2.71       0.000
  4                    OUTFALL       0.00     0.20     0  02:34           0    8.71e-05       0.000
  5                    OUTFALL       0.00     0.00     0  00:00           0           0       0.000 ltr
  JK-storage           STORAGE       0.00  1011.85     0  02:49           0        5.57      -0.489
  CC-storage           STORAGE       0.00  1101.22     0  03:02           0        7.84       0.807
  XR-storage           STORAGE     442.93   442.93     0  03:01        8.07        8.67      -0.003
  
  
  **********************
  Node Surcharge Summary
  **********************
  
  Surcharging occurs when water rises above the top of the highest conduit.
  ---------------------------------------------------------------------
                                               Max. Height   Min. Depth
                                   Hours       Above Crown    Below Rim
  Node                 Type      Surcharged         Meters       Meters
  ---------------------------------------------------------------------
  WS02006109           JUNCTION        1.40          0.143        1.677
  WS02006110           JUNCTION        0.26          0.006        1.844
  WS02006112           JUNCTION        0.91          0.043        1.637
  WS02006232           JUNCTION        1.14          0.084        1.396
  WS02006235           JUNCTION        0.74          0.030        1.260
  WS02006238           JUNCTION        0.85          0.046        1.384
  WS02006228           JUNCTION        1.38          0.169        2.031
  YS02001748           JUNCTION        4.33          0.224        0.966
  YS02001751           JUNCTION        4.76          0.782        0.418
  YS02001754           JUNCTION        5.18          0.780        0.370
  YS02001762           JUNCTION        5.50          1.016        0.134
  YS02001765           JUNCTION        5.47          0.963        0.137
  YS02001767           JUNCTION        5.43          0.915        0.115
  YS02001770           JUNCTION        5.40          0.873        0.047
  YS02001774           JUNCTION        5.49          0.964        0.086
  YS02001779           JUNCTION        5.14          0.680        0.000
  YS02001759           JUNCTION        5.53          1.054        0.156
  YS02001907           JUNCTION        0.27          0.059        0.891
  YS02001619           JUNCTION        4.71          0.586        0.024
  YS02001629           JUNCTION        4.73          0.470        0.000
  YS02001641           JUNCTION        5.48          0.936        0.164
  YS02001644           JUNCTION        5.48          0.920        0.000
  YS02001652           JUNCTION        5.24          1.130        0.000
  YS02001655           JUNCTION        4.78          1.200        0.000
  YS02001658           JUNCTION        4.36          1.243        0.057
  YS02001661           JUNCTION        0.06          0.918        0.472
  YS02001622           JUNCTION        4.81          0.565        0.055
  YS02001633           JUNCTION        5.45          0.935        0.125
  YS02001649           JUNCTION        5.51          1.050        0.000
  YS02001757           JUNCTION        5.64          1.158        0.052
  YS02001625           JUNCTION        5.31          0.780        0.000
  YS02163301           JUNCTION        5.42          0.894        0.136
  YS02163601           JUNCTION        5.51          0.990        0.090
  YS02164001           JUNCTION        5.46          0.921        0.179
  YS02001647           JUNCTION        5.27          0.798        0.102
  YS02006553           JUNCTION        0.41          0.064        1.126
  YS02001783           JUNCTION        0.15          0.420        1.180
  YS02001784           JUNCTION        0.27          0.582        0.908
  YS02001786           JUNCTION        0.16          0.670        0.760
  YS02001788           JUNCTION        0.11          0.758        0.722
  YS02001790           JUNCTION        1.55          0.868        0.289
  YS02001791           JUNCTION        1.68          0.694        1.226
  YS02001793           JUNCTION        1.89          1.738        0.862
  
  
  *********************
  Node Flooding Summary
  *********************
  
  Flooding refers to all water that overflows a node, whether it ponds or not.
  --------------------------------------------------------------------------
                                                             Total   Maximum
                                 Maximum   Time of Max       Flood    Ponded
                        Hours       Rate    Occurrence      Volume     Depth
  Node                 Flooded       LPS   days hr:min    10^6 ltr    Meters
  --------------------------------------------------------------------------
  YS02001779              0.83      9.40      0  03:59       0.005     0.000
  YS02001629              0.01     17.82      0  03:21       0.000     0.000
  YS02001644              2.98    409.07      0  04:10       1.376     0.000
  YS02001652              0.01     33.82      0  02:56       0.000     0.000
  YS02001655              0.01    270.01      0  02:56       0.001     0.000
  YS02001649              0.01     34.55      0  03:51       0.000     0.000
  YS02001625              0.07     14.57      0  03:22       0.001     0.000
  JK-storage              1.23    339.40      0  03:03       0.677     0.000
  XR-storage              6.97    252.92      0  03:01       2.924     0.000
  
  
  **********************
  Storage Volume Summary
  **********************
  
  --------------------------------------------------------------------------------------------------
                         Average     Avg  Evap Exfil       Maximum     Max    Time of Max    Maximum
                          Volume    Pcnt  Pcnt  Pcnt        Volume    Pcnt     Occurrence    Outflow
  Storage Unit           1000 m3    Full  Loss  Loss       1000 m3    Full    days hr:min        LPS
  --------------------------------------------------------------------------------------------------
  JK-storage               0.114      39     0     0         0.291     100       0  02:55     437.96
  CC-storage               2.787      18     0     0         3.784      24       0  04:06     200.00
  XR-storage               0.917      99     0     0         0.926     100       0  00:51     190.00
  
  
  ***********************
  Outfall Loading Summary
  ***********************
  
  -----------------------------------------------------------
                         Flow       Avg       Max       Total
                         Freq      Flow      Flow      Volume
  Outfall Node           Pcnt       LPS       LPS    10^6 ltr
  -----------------------------------------------------------
  WSC                   99.99    546.10    749.65      13.090
  3                     84.22    141.23    250.55       2.709
  4                      2.95      0.13      0.20       0.000
  5                      0.00      0.00      0.00       0.000
  -----------------------------------------------------------
  System                46.79    687.46    970.92      15.799
  
  
  ********************
  Link Flow Summary
  ********************
  
  -----------------------------------------------------------------------------
                                 Maximum  Time of Max   Maximum    Max/    Max/
                                  |Flow|   Occurrence   |Veloc|    Full    Full
  Link                 Type          LPS  days hr:min     m/sec    Flow   Depth
  -----------------------------------------------------------------------------
  WS02003066WSF200     CONDUIT    534.39     0  02:35      2.73    0.09    0.23
  WS02006287WS02006284 CONDUIT    204.71     0  02:27      1.62    0.09    0.22
  WS02006284WS02006280 CONDUIT    204.81     0  02:27      1.86    0.09    0.20
  WS02006280WS02006229 CONDUIT    204.81     0  02:27      2.99    0.04    0.14
  WS02006229WS02006228 CONDUIT    527.06     0  02:29      1.05    1.75    1.00
  WS02006256WS02006235 CONDUIT    166.25     0  00:01      2.58    1.76    1.00
  WS02006253WS02006251 CONDUIT     40.99     0  02:26      0.43    0.12    0.69
  WS02006252WS02006251 CONDUIT    200.34     0  02:01      1.97    0.74    0.76
  WS02006251WS02006249 CONDUIT    240.18     0  02:27      0.96    0.69    0.70
  WS02006249WS02006248 CONDUIT    239.33     0  02:29      1.04    1.31    0.69
  WS02006248WS02006247 CONDUIT    239.19     0  02:36      1.01    0.52    0.74
  WS02006247WS02006245 CONDUIT    239.39     0  02:37      0.97    1.90    0.78
  WS02006245WS02006243 CONDUIT    239.62     0  02:38      1.02    0.71    0.81
  WS02006243WS02006242 CONDUIT    240.01     0  02:39      0.83    0.51    0.91
  WS02006242WS02006240 CONDUIT    240.25     0  02:39      0.70    0.95    0.97
  WS02006240WS02006239 CONDUIT    240.48     0  02:39      0.72    0.76    0.97
  WS02006239WS02006238 CONDUIT    240.66     0  02:39      0.67    0.77    1.00
  WS02006238WS02006235 CONDUIT    240.69     0  02:39      1.25    0.54    1.00
  WS02006235WS02006234 CONDUIT    329.35     0  03:12      0.94    3.47    1.00
  WS02006234WS02006232 CONDUIT    330.52     0  03:12      1.13    0.67    1.00
  WS02006232WS02006231 CONDUIT    330.67     0  03:12      0.94    0.69    0.97
  WS02006231WS02006230 CONDUIT    332.20     0  03:12      1.29    5.04    0.91
  WS02006230WS02006229 CONDUIT    344.69     0  03:12      0.90    7.67    1.00
  WS02006228WS02006109 CONDUIT    527.05     0  02:29      1.05    2.30    1.00
  WS02006116WS02004401 CONDUIT    534.85     0  02:31      0.76    0.74    0.84
  WS02006115WS02006116 CONDUIT    535.02     0  02:30      0.84    0.69    0.76
  WS02006113WS02006111 CONDUIT    548.37     0  02:30      2.44    0.66    0.46
  WS02006112WS02006115 CONDUIT    535.55     0  02:29      0.74    0.32    0.87
  WS02006111WS02006112 CONDUIT    531.52     0  02:30      1.48    0.25    0.67
  WS02006110WS02006113 CONDUIT    528.49     0  02:30      1.25    0.48    0.78
  WS02006109WS02006110 CONDUIT    528.29     0  02:30      1.05    1.02    1.00
  WS02004411WS02004412 CONDUIT    534.43     0  02:34      0.92    0.76    0.69
  WS02004401WS02004402 CONDUIT    534.79     0  02:31      0.77    0.64    0.86
  WS02004413WS02003067 CONDUIT    534.38     0  02:35      1.11    0.23    0.59
  WS02004412WS02004413 CONDUIT    534.39     0  02:34      0.82    0.36    0.78
  WS02004410WS02004411 CONDUIT    534.50     0  02:33      0.93    0.73    0.68
  WS02004409WS02004410 CONDUIT    534.62     0  02:33      0.95    0.69    0.67
  WS02004407WS02004409 CONDUIT    534.80     0  02:32      1.43    0.19    0.48
  WS02004406WS02004407 CONDUIT    534.82     0  02:32      1.04    0.24    0.62
  WS02004405WS02004406 CONDUIT    534.87     0  02:32      0.69    1.06    0.95
  WS02004404WS02004405 CONDUIT    534.78     0  02:32      0.84    5.24    0.96
  WS02004403WS02004404 CONDUIT    534.67     0  02:32      0.74    0.39    0.93
  WS02004402WS02004403 CONDUIT    534.71     0  02:32      0.75    0.77    0.88
  WS02004139WS02001211 CONDUIT    191.02     0  03:23      0.53    0.24    0.47
  WS02004138WS02004139 CONDUIT    190.00     0  01:42      2.39    0.04    0.33
  WS02003067WS02003066 CONDUIT    534.39     0  02:35      1.20    0.17    0.42
  WS02001213WS02003059 CONDUIT    201.15     0  03:21      0.47    0.33    0.67
  WS02001212WS02001213 CONDUIT    199.87     0  03:22      1.03    0.31    0.36
  WS02001211WS02001212 CONDUIT    199.19     0  03:23      0.54    0.15    0.51
  WS02003072WS02003073 CONDUIT    747.84     0  02:38      1.59    1.62    0.43
  WS02003069WS02003072 CONDUIT    747.84     0  02:38      1.51    0.36    0.45
  WS02003060WS02003069 CONDUIT    747.52     0  02:37      1.76    0.29    0.40
  WS02003059WS02003060 CONDUIT    202.88     0  03:21      0.64    0.13    0.58
  HS02004901HS02004770 CONDUIT      9.22     0  02:24      0.05    0.03    0.31
  HS02004876HS02004881 CONDUIT     36.81     0  02:26      0.59    0.39    0.09
  HS02004870HS02004876 CONDUIT     29.40     0  02:26      0.41    0.02    0.10
  HS02004842HS02004848 CONDUIT      6.79     0  02:52      0.04    0.00    0.28
  HS02004837HS02004842 CONDUIT      7.01     0  03:02      0.41    0.00    0.29
  HS02004830HS02004837 CONDUIT     25.65     0  02:26      0.46    0.03    0.08
  HS02004824HS02004830 CONDUIT     25.79     0  02:27      0.49    0.03    0.08
  HS02004817HS02004824 CONDUIT     44.91     0  02:27      0.17    0.02    0.41
  HS02004770HS02004777 CONDUIT     48.37     0  02:24      0.21    0.09    0.33
  HS02004799HS02004480 CONDUIT    123.11     0  02:25      0.58    0.16    0.31
  HS02004792HS02004799 CONDUIT    112.10     0  02:25      0.66    0.07    0.24
  HS02004788HS02004792 CONDUIT     65.23     0  02:26      0.81    0.04    0.11
  HS02004785HS02004788 CONDUIT     48.34     0  02:26      0.49    0.36    0.14
  HS02004777HS02004785 CONDUIT     48.24     0  02:25      0.26    0.06    0.26
  HS02004480HS02004478 CONDUIT    146.06     0  02:26      0.94    0.62    0.22
  HS02004479HS02004480 CONDUIT     23.22     0  02:27      0.27    0.02    0.30
  HS02004862HS02004870 CONDUIT     22.03     0  02:27      0.49    0.02    0.06
  HS02004848HS02004852 CONDUIT      9.33     0  02:26      0.33    0.01    0.04
  HS02004856HS02004862 CONDUIT     14.82     0  02:26      0.35    0.01    0.06
  HS02004852HS02004856 CONDUIT      9.30     0  02:27      0.14    0.01    0.10
  HS02004802HS02004478 CONDUIT     59.19     0  02:29      0.33    0.05    0.26
  HS02004478WS02006287 CONDUIT    204.70     0  02:27      1.31    0.06    0.17
  HS02004817HS02004807 CONDUIT     45.68     0  02:29      0.13    0.03    0.52
  HS02004807HS02004802 CONDUIT     59.00     0  02:28      0.28    0.11    0.31
  YS02001759YS02001757 CONDUIT    386.87     0  02:57      0.49    0.27    1.00
  YS02001762YS02001759 CONDUIT    209.22     0  02:57      0.27    0.24    1.00
  YS02001765YS02001762 CONDUIT    206.24     0  02:57      0.28    0.19    1.00
  YS02001770YS02001767 CONDUIT    199.72     0  02:57      0.25    0.79    1.00
  YS02001774YS02001770 CONDUIT     32.68     0  01:57      0.22    0.02    1.00
  YS02001779YS02001774 CONDUIT     19.39     0  02:47      0.05    0.01    1.00
  YS02001649YS02001757 CONDUIT    612.51     0  02:57      0.78    0.37    1.00
  YS02001767YS02001765 CONDUIT    202.90     0  02:57      0.30    0.26    1.00
  YS02006561YS02001783 CONDUIT    639.39     0  03:03      2.10    0.33    0.73
  YS02001783YS02001784 CONDUIT    640.01     0  03:05      1.54    0.88    1.00
  YS02001784YS02001785 CONDUIT    640.16     0  03:05      1.65    1.49    1.00
  YS02001788YS02001790 CONDUIT    639.01     0  03:03      2.16    0.47    1.00
  YS02001790YS02001791 CONDUIT    639.25     0  03:03      2.56    0.70    1.00
  YS02001791YS02001793 CONDUIT    673.78     0  02:51      5.17    0.29    1.00
  YS02001910YS02001907 CONDUIT    228.32     0  03:03      0.49    0.13    0.91
  YS02001786YS02001788 CONDUIT    640.09     0  03:04      2.09    1.23    1.00
  YS02001915YS02001910 CONDUIT    222.59     0  03:03      0.55    0.11    0.72
  YS02001918YS02001915 CONDUIT     83.34     0  03:03      0.44    0.05    0.44
  YS02001923YS02001920 CONDUIT     64.77     0  03:02      0.57    0.03    0.23
  YS02001926YS02001923 CONDUIT     64.74     0  03:02      0.66    0.09    0.18
  YS02001929YS02001926 CONDUIT     64.92     0  03:01      0.71    0.03    0.17
  YS02001920YS02001918 CONDUIT     75.44     0  03:03      0.57    0.07    0.30
  YS02001629YS02163301 CONDUIT    178.86     0  03:04      0.23    0.22    1.00
  YS02001619YS02001622 CONDUIT    164.65     0  02:54      0.57    0.24    1.00
  YS02001622YS02001625 CONDUIT    221.18     0  02:53      0.31    0.12    1.00
  YS02001625YS02001629 CONDUIT    220.92     0  02:53      0.29    0.11    1.00
  YS02163301YS02001633 CONDUIT    178.94     0  03:04      0.23    0.17    1.00
  YS02163601YS02164001 CONDUIT    317.72     0  03:04      0.40    0.28    1.00
  YS02164001YS02001641 CONDUIT    317.35     0  03:04      0.40    0.43    1.00
  YS02001641YS02001644 CONDUIT    316.78     0  03:04      0.40    1.02    1.00
  YS02001647YS02001649 CONDUIT    453.48     0  03:03      0.58    0.24    1.00
  YS02006553YS02006556 CONDUIT    468.54     0  03:03      0.60    0.40    0.99
  YS02006556YS02006558 CONDUIT    479.81     0  03:05      0.61    0.38    1.00
  YSB6556YSB1171       CONDUIT     13.19     0  02:28      0.06    0.01    0.57
  YS02001907YS02006553 CONDUIT    457.09     0  03:04      0.51    0.54    1.00
  YS02006558YS02006561 CONDUIT    684.94     0  03:00      3.20    1.51    0.74
  YS02001633YS02163601 CONDUIT    317.69     0  03:04      0.40    0.33    1.00
  YS02001644YS02001647 CONDUIT    454.18     0  03:03      0.58    0.27    1.00
  YS02001745YS02001748 CONDUIT    362.33     0  03:11      1.42    0.14    0.93
  YS02001748YS02001751 CONDUIT    371.91     0  02:55      1.00    0.19    1.00
  YS02001751YS02001754 CONDUIT    233.12     0  02:56      0.86    0.11    1.00
  YS02001754YS02001757 CONDUIT    214.37     0  03:07      0.33    0.09    1.00
  YS02001882YS02001884 CONDUIT     20.11     0  02:55      0.09    0.02    0.66
  YS02001884YS02001887 CONDUIT     26.66     0  02:55      0.05    0.04    0.75
  YS02001890YS02001895 CONDUIT    237.51     0  02:56      0.40    0.11    0.72
  YS02001895YS02001898 CONDUIT    245.55     0  03:03      0.53    0.43    0.58
  YS02001898YS02001901 CONDUIT    241.18     0  03:00      0.46    0.16    0.66
  YS02001901YS02001904 CONDUIT    242.65     0  03:04      0.42    0.38    0.71
  YS02001904YS02001907 CONDUIT    265.02     0  03:03      0.38    0.09    0.85
  YS02001887YS02001890 CONDUIT    233.20     0  03:03      0.35    0.40    0.80
  YS02001652YS02001649 CONDUIT    232.00     0  03:06      0.56    0.11    1.00
  YS02001655YS02001652 CONDUIT    231.82     0  03:06      0.91    0.11    1.00
  YS02001658YS02001655 CONDUIT    397.84     0  02:54      1.15    0.17    1.00
  YS02001661YS02001658 CONDUIT    544.05     0  03:13      1.49    0.21    1.00
  YS02001664YS02001661 CONDUIT    471.75     0  03:47      1.39    0.15    0.70
  YSB1154YSB6556       CONDUIT     13.14     0  02:25      0.16    0.02    0.46
  YSB1174YSB1171       CONDUIT     10.08     0  02:23      0.04    0.02    0.57
  YSB1171HS02004479    CONDUIT     23.09     0  02:27      0.54    0.02    0.44
  HS02004881HS02006253 CONDUIT     40.75     0  02:26      1.48    0.01    0.13
  YS02001793JiankangQianchi CONDUIT   1011.85     0  02:49     13.02    0.08    1.00
  YS02001757CaochengTiaoxuchi CONDUIT   1101.22     0  03:02      1.67    0.48    1.00
  WSF200WS02003060     CONDUIT    534.38     0  02:35      1.75    0.12    0.32
  1                    CONDUIT    749.65     0  02:39      3.08    0.26    0.35
  2                    CONDUIT      0.20     0  02:34      0.75    0.00    0.02
  3                    CONDUIT    250.55     0  00:00      8.26    0.40    0.46
  4                    CONDUIT      0.00     0  00:00      0.00    0.00    0.00
  CC-Pump-1            PUMP         0.00     0  00:00              0.00
  CC-Pump-2            PUMP       200.00     0  02:01              1.00
  JK-Pump-1            PUMP       300.00     0  00:00              1.00
  JK-Pump-2            PUMP         0.00     0  00:00              0.00
  XR-Pump-1            PUMP        95.00     0  00:00              1.00
  XR-Pump-2            PUMP        95.00     0  01:40              1.00
  XR-Pump-3            PUMP         0.00     0  00:00              0.00
  XR-Pump-4            PUMP        95.00     0  01:40              1.00
  
  
  ***************************
  Flow Classification Summary
  ***************************
  
  -------------------------------------------------------------------------------------
                      Adjusted    ---------- Fraction of Time in Flow Class ---------- 
                       /Actual         Up    Down  Sub   Sup   Up    Down  Norm  Inlet 
  Conduit               Length    Dry  Dry   Dry   Crit  Crit  Crit  Crit  Ltd   Ctrl  
  -------------------------------------------------------------------------------------
  WS02003066WSF200        1.00   0.06  0.00  0.00  0.00  0.94  0.00  0.00  0.64  0.00
  WS02006287WS02006284    1.00   0.04  0.01  0.00  0.63  0.32  0.00  0.00  0.77  0.00
  WS02006284WS02006280    1.00   0.04  0.00  0.00  0.00  0.00  0.00  0.96  0.00  0.00
  WS02006280WS02006229    1.00   0.04  0.00  0.00  0.00  0.00  0.00  0.96  0.00  0.00
  WS02006229WS02006228    1.00   0.00  0.00  0.00  0.99  0.00  0.00  0.01  0.00  0.00
  WS02006256WS02006235    1.00   0.00  0.00  0.00  1.00  0.00  0.00  0.00  0.00  0.00
  WS02006253WS02006251    1.00   0.03  0.01  0.00  0.96  0.00  0.00  0.00  0.00  0.00
  WS02006252WS02006251    1.00   0.07  0.00  0.00  0.00  0.00  0.93  0.00  0.00  0.00
  WS02006251WS02006249    1.00   0.00  0.00  0.00  1.00  0.00  0.00  0.00  0.23  0.00
  WS02006249WS02006248    1.00   0.00  0.02  0.00  0.93  0.00  0.05  0.00  0.00  0.00
  WS02006248WS02006247    1.00   0.02  0.00  0.00  0.98  0.00  0.00  0.00  0.11  0.00
  WS02006247WS02006245    1.00   0.02  0.00  0.00  0.98  0.00  0.00  0.00  0.00  0.00
  WS02006245WS02006243    1.00   0.01  0.00  0.00  0.95  0.00  0.00  0.04  0.01  0.00
  WS02006243WS02006242    1.00   0.01  0.00  0.00  0.99  0.00  0.00  0.00  0.21  0.00
  WS02006242WS02006240    1.00   0.00  0.00  0.00  1.00  0.00  0.00  0.00  0.00  0.00
  WS02006240WS02006239    1.00   0.00  0.00  0.00  0.97  0.00  0.00  0.03  0.01  0.00
  WS02006239WS02006238    1.00   0.00  0.00  0.00  1.00  0.00  0.00  0.00  0.02  0.00
  WS02006238WS02006235    1.00   0.00  0.00  0.00  1.00  0.00  0.00  0.00  0.00  0.00
  WS02006235WS02006234    1.00   0.00  0.00  0.00  0.96  0.00  0.04  0.00  0.00  0.00
  WS02006234WS02006232    1.00   0.00  0.00  0.00  1.00  0.00  0.00  0.00  0.11  0.00
  WS02006232WS02006231    1.00   0.00  0.00  0.00  0.99  0.00  0.00  0.00  0.00  0.00
  WS02006231WS02006230    1.00   0.00  0.00  0.00  0.45  0.00  0.55  0.00  0.00  0.00
  WS02006230WS02006229    1.00   0.00  0.00  0.00  0.99  0.00  0.00  0.01  0.01  0.00
  WS02006228WS02006109    1.00   0.00  0.00  0.00  1.00  0.00  0.00  0.00  0.00  0.00
  WS02006116WS02004401    1.00   0.02  0.00  0.00  0.98  0.00  0.00  0.00  0.00  0.00
  WS02006115WS02006116    1.00   0.02  0.00  0.00  0.97  0.00  0.00  0.01  0.00  0.00
  WS02006113WS02006111    1.00   0.02  0.00  0.00  0.00  0.98  0.00  0.00  0.11  0.00
  WS02006112WS02006115    1.00   0.02  0.00  0.00  0.97  0.00  0.00  0.00  0.00  0.00
  WS02006111WS02006112    1.00   0.02  0.00  0.00  0.98  0.00  0.00  0.00  0.98  0.00
  WS02006110WS02006113    1.00   0.01  0.01  0.00  0.98  0.00  0.00  0.00  0.00  0.00
  WS02006109WS02006110    1.00   0.00  0.01  0.00  0.98  0.00  0.01  0.00  0.00  0.00
  WS02004411WS02004412    1.00   0.04  0.00  0.00  0.96  0.00  0.00  0.00  0.00  0.00
  WS02004401WS02004402    1.00   0.03  0.00  0.00  0.97  0.00  0.00  0.00  0.00  0.00
  WS02004413WS02003067    1.00   0.04  0.01  0.00  0.00  0.00  0.95  0.00  0.00  0.00
  WS02004412WS02004413    1.00   0.04  0.00  0.00  0.96  0.00  0.00  0.00  0.03  0.00
  WS02004410WS02004411    1.00   0.04  0.00  0.00  0.96  0.00  0.00  0.00  0.04  0.00
  WS02004409WS02004410    1.00   0.04  0.00  0.00  0.96  0.00  0.00  0.00  0.03  0.00
  WS02004407WS02004409    1.00   0.04  0.00  0.00  0.96  0.00  0.00  0.00  0.89  0.00
  WS02004406WS02004407    1.00   0.00  0.04  0.00  0.96  0.00  0.00  0.00  0.00  0.00
  WS02004405WS02004406    1.00   0.00  0.00  0.00  1.00  0.00  0.00  0.00  0.00  0.00
  WS02004404WS02004405    1.00   0.00  0.00  0.00  1.00  0.00  0.00  0.00  0.00  0.00
  WS02004403WS02004404    1.00   0.00  0.03  0.00  0.97  0.00  0.00  0.00  0.01  0.00
  WS02004402WS02004403    1.00   0.03  0.00  0.00  0.97  0.00  0.00  0.00  0.00  0.00
  WS02004139WS02001211    1.00   0.00  0.00  0.00  0.99  0.00  0.01  0.00  0.00  0.00
  WS02004138WS02004139    1.00   0.00  0.00  0.00  0.99  0.01  0.00  0.00  1.00  0.00
  WS02003067WS02003066    1.00   0.06  0.00  0.00  0.94  0.00  0.00  0.00  0.00  0.00
  WS02001213WS02003059    1.00   0.00  0.01  0.00  0.99  0.00  0.00  0.00  0.00  0.00
  WS02001212WS02001213    1.00   0.01  0.00  0.00  0.90  0.00  0.09  0.00  0.00  0.00
  WS02001211WS02001212    1.00   0.00  0.01  0.00  0.99  0.00  0.00  0.00  0.00  0.00
  WS02003072WS02003073    1.00   0.00  0.00  0.00  0.00  0.00  0.00  1.00  0.00  0.00
  WS02003069WS02003072    1.00   0.00  0.00  0.00  0.99  0.01  0.00  0.00  0.24  0.00
  WS02003060WS02003069    1.00   0.00  0.00  0.00  0.99  0.01  0.00  0.00  0.18  0.00
  WS02003059WS02003060    1.00   0.00  0.00  0.00  1.00  0.00  0.00  0.00  0.02  0.00
  HS02004901HS02004770    1.00   0.04  0.00  0.00  0.96  0.00  0.00  0.00  0.00  0.00
  HS02004876HS02004881    1.00   0.02  0.00  0.00  0.98  0.00  0.00  0.00  0.00  0.00
  HS02004870HS02004876    1.00   0.01  0.00  0.00  0.99  0.00  0.00  0.00  0.95  0.00
  HS02004842HS02004848    1.00   0.00  0.04  0.00  0.96  0.00  0.00  0.00  0.61  0.00
  HS02004837HS02004842    1.00   0.00  0.00  0.00  0.99  0.01  0.00  0.00  0.11  0.00
  HS02004830HS02004837    1.00   0.00  0.00  0.00  1.00  0.00  0.00  0.00  0.99  0.00
  HS02004824HS02004830    1.00   0.00  0.00  0.00  1.00  0.00  0.00  0.00  0.00  0.00
  HS02004817HS02004824    1.00   0.00  0.00  0.00  1.00  0.00  0.00  0.00  1.00  0.00
  HS02004770HS02004777    1.00   0.00  0.04  0.00  0.96  0.00  0.00  0.00  0.03  0.00
  HS02004799HS02004480    1.00   0.00  0.02  0.00  0.95  0.00  0.02  0.00  0.00  0.00
  HS02004792HS02004799    1.00   0.00  0.00  0.00  0.99  0.01  0.00  0.00  0.98  0.00
  HS02004788HS02004792    1.00   0.00  0.00  0.00  0.99  0.01  0.00  0.00  0.98  0.00
  HS02004785HS02004788    1.00   0.00  0.00  0.00  1.00  0.00  0.00  0.00  0.00  0.00
  HS02004777HS02004785    1.00   0.00  0.00  0.00  1.00  0.00  0.00  0.00  0.13  0.00
  HS02004480HS02004478    1.00   0.04  0.00  0.00  0.68  0.00  0.00  0.28  0.00  0.00
  HS02004479HS02004480    1.00   0.03  0.00  0.00  0.97  0.00  0.00  0.00  0.12  0.00
  HS02004862HS02004870    1.00   0.00  0.00  0.00  1.00  0.00  0.00  0.00  0.06  0.00
  HS02004848HS02004852    1.00   0.04  0.00  0.00  0.96  0.00  0.00  0.00  0.69  0.00
  HS02004856HS02004862    1.00   0.00  0.05  0.00  0.95  0.00  0.00  0.00  0.81  0.00
  HS02004852HS02004856    1.00   0.04  0.00  0.00  0.96  0.00  0.00  0.00  0.86  0.00
  HS02004802HS02004478    1.00   0.04  0.00  0.00  0.96  0.00  0.00  0.00  0.03  0.00
  HS02004478WS02006287    1.00   0.05  0.00  0.00  0.76  0.19  0.00  0.00  0.77  0.00
  HS02004817HS02004807    1.00   0.00  0.04  0.00  0.96  0.00  0.00  0.00  0.01  0.00
  HS02004807HS02004802    1.00   0.04  0.00  0.00  0.95  0.00  0.00  0.00  0.00  0.00
  YS02001759YS02001757    1.00   0.00  0.00  0.00  1.00  0.00  0.00  0.00  0.16  0.00
  YS02001762YS02001759    1.00   0.00  0.00  0.00  1.00  0.00  0.00  0.00  0.03  0.00
  YS02001765YS02001762    1.00   0.00  0.00  0.00  1.00  0.00  0.00  0.00  0.15  0.00
  YS02001770YS02001767    1.00   0.00  0.00  0.00  1.00  0.00  0.00  0.00  0.00  0.00
  YS02001774YS02001770    1.00   0.00  0.04  0.00  0.96  0.00  0.00  0.00  0.03  0.00
  YS02001779YS02001774    1.00   0.00  0.00  0.00  1.00  0.00  0.00  0.00  0.21  0.00
  YS02001649YS02001757    1.00   0.00  0.00  0.00  1.00  0.00  0.00  0.00  0.16  0.00
  YS02001767YS02001765    1.00   0.00  0.00  0.00  1.00  0.00  0.00  0.00  0.01  0.00
  YS02006561YS02001783    1.00   0.06  0.00  0.00  0.24  0.70  0.00  0.00  0.69  0.00
  YS02001783YS02001784    1.00   0.00  0.06  0.00  0.94  0.00  0.00  0.00  0.01  0.00
  YS02001784YS02001785    1.00   0.00  0.00  0.00  1.00  0.00  0.00  0.00  0.19  0.00
  YS02001788YS02001790    1.00   0.00  0.00  0.00  0.35  0.65  0.00  0.00  0.62  0.00
  YS02001790YS02001791    1.00   0.00  0.00  0.00  0.32  0.68  0.00  0.00  0.50  0.00
  YS02001791YS02001793    1.00   0.00  0.00  0.00  0.33  0.67  0.00  0.00  0.02  0.00
  YS02001910YS02001907    1.00   0.00  0.00  0.00  0.97  0.00  0.00  0.02  0.12  0.00
  YS02001786YS02001788    1.00   0.00  0.00  0.00  0.33  0.67  0.00  0.00  0.00  0.00
  YS02001915YS02001910    1.00   0.00  0.00  0.00  0.99  0.01  0.00  0.00  0.18  0.00
  YS02001918YS02001915    1.00   0.00  0.01  0.00  0.98  0.01  0.00  0.00  0.69  0.00
  YS02001923YS02001920    1.00   0.00  0.00  0.00  1.00  0.00  0.00  0.00  1.00  0.00
  YS02001926YS02001923    1.00   0.00  0.03  0.00  0.00  0.00  0.97  0.00  0.00  0.00
  YS02001929YS02001926    1.00   0.00  0.04  0.00  0.96  0.00  0.00  0.00  0.87  0.00
  YS02001920YS02001918    1.00   0.00  0.01  0.00  0.99  0.00  0.00  0.00  0.00  0.00
  YS02001629YS02163301    1.00   0.05  0.00  0.00  0.95  0.00  0.00  0.00  0.00  0.00
  YS02001619YS02001622    1.00   0.04  0.00  0.00  0.96  0.00  0.00  0.00  0.00  0.00
  YS02001622YS02001625    1.00   0.04  0.00  0.00  0.96  0.00  0.00  0.00  0.07  0.00
  YS02001625YS02001629    1.00   0.04  0.01  0.00  0.93  0.00  0.01  0.00  0.00  0.00
  YS02163301YS02001633    1.00   0.00  0.05  0.00  0.95  0.00  0.00  0.00  0.00  0.00
  YS02163601YS02164001    1.00   0.00  0.03  0.00  0.97  0.00  0.00  0.00  0.00  0.00
  YS02164001YS02001641    1.00   0.01  0.03  0.00  0.97  0.00  0.00  0.00  0.06  0.00
  YS02001641YS02001644    1.00   0.00  0.01  0.00  0.99  0.00  0.00  0.00  0.00  0.00
  YS02001647YS02001649    1.00   0.00  0.05  0.00  0.95  0.00  0.00  0.00  0.01  0.00
  YS02006553YS02006556    1.00   0.01  0.00  0.00  0.99  0.00  0.00  0.00  0.03  0.00
  YS02006556YS02006558    1.00   0.00  0.00  0.00  1.00  0.00  0.00  0.00  0.00  0.00
  YSB6556YSB1171          1.00   0.03  0.01  0.00  0.96  0.00  0.00  0.00  0.00  0.00
  YS02001907YS02006553    1.00   0.00  0.02  0.00  0.98  0.00  0.00  0.00  0.00  0.00
  YS02006558YS02006561    1.00   0.06  0.00  0.00  0.00  0.94  0.00  0.00  0.60  0.00
  YS02001633YS02163601    1.00   0.00  0.01  0.00  0.99  0.00  0.00  0.00  0.15  0.00
  YS02001644YS02001647    1.00   0.00  0.05  0.00  0.95  0.00  0.00  0.00  0.00  0.00
  YS02001745YS02001748    1.00   0.00  0.00  0.00  0.88  0.01  0.00  0.11  0.07  0.00
  YS02001748YS02001751    1.00   0.00  0.00  0.00  0.97  0.03  0.00  0.00  0.16  0.00
  YS02001751YS02001754    1.00   0.00  0.00  0.00  0.94  0.00  0.00  0.06  0.02  0.00
  YS02001754YS02001757    1.00   0.00  0.00  0.00  0.99  0.01  0.00  0.00  0.20  0.00
  YS02001882YS02001884    1.00   0.05  0.00  0.00  0.95  0.00  0.00  0.00  0.00  0.00
  YS02001884YS02001887    1.00   0.03  0.01  0.00  0.96  0.00  0.00  0.00  0.00  0.00
  YS02001890YS02001895    1.00   0.00  0.05  0.00  0.95  0.00  0.00  0.00  0.00  0.00
  YS02001895YS02001898    1.00   0.05  0.00  0.00  0.94  0.00  0.01  0.00  0.00  0.00
  YS02001898YS02001901    1.00   0.05  0.00  0.00  0.95  0.00  0.00  0.00  0.03  0.00
  YS02001901YS02001904    1.00   0.05  0.00  0.00  0.95  0.00  0.00  0.00  0.00  0.00
  YS02001904YS02001907    1.00   0.00  0.05  0.00  0.95  0.00  0.00  0.00  0.00  0.00
  YS02001887YS02001890    1.00   0.00  0.00  0.00  0.97  0.00  0.02  0.00  0.00  0.00
  YS02001652YS02001649    1.00   0.00  0.00  0.00  1.00  0.00  0.00  0.00  0.18  0.00
  YS02001655YS02001652    1.00   0.00  0.00  0.00  0.94  0.00  0.00  0.06  0.02  0.00
  YS02001658YS02001655    1.00   0.00  0.05  0.00  0.93  0.02  0.00  0.00  0.12  0.00
  YS02001661YS02001658    1.00   0.05  0.00  0.00  0.87  0.08  0.00  0.00  0.16  0.00
  YS02001664YS02001661    1.00   0.04  0.00  0.00  0.84  0.12  0.00  0.00  0.30  0.00
  YSB1154YSB6556          1.00   0.04  0.00  0.00  0.96  0.00  0.00  0.00  0.02  0.00
  YSB1174YSB1171          1.00   0.03  0.01  0.00  0.96  0.00  0.00  0.00  0.00  0.00
  YSB1171HS02004479       1.00   0.03  0.00  0.00  0.97  0.00  0.00  0.00  0.10  0.00
  HS02004881HS02006253    1.00   0.03  0.00  0.00  0.92  0.00  0.00  0.05  0.75  0.00
  YS02001793JiankangQianchi    1.00   0.00  0.00  0.00  0.50  0.50  0.00  0.00  0.15  0.00
  YS02001757CaochengTiaoxuchi    1.00   0.00  0.07  0.00  0.93  0.00  0.00  0.00  0.00  0.00
  WSF200WS02003060        1.00   0.00  0.06  0.00  0.65  0.29  0.00  0.00  0.05  0.00
  1                       1.00   0.00  0.00  0.00  0.00  1.00  0.00  0.00  0.53  0.00
  2                       1.00   0.96  0.00  0.00  0.00  0.04  0.00  0.00  0.02  0.00
  3                       1.00   0.16  0.00  0.00  0.00  0.84  0.00  0.00  0.23  0.00
  4                       1.00   1.00  0.00  0.00  0.00  0.00  0.00  0.00  0.00  0.00
  
  
  *************************
  Conduit Surcharge Summary
  *************************
  
  ----------------------------------------------------------------------------
                                                           Hours        Hours 
                         --------- Hours Full --------   Above Full   Capacity
  Conduit                Both Ends  Upstream  Dnstream   Normal Flow   Limited
  ----------------------------------------------------------------------------
  WS02006229WS02006228        1.38      1.42      1.38      5.56         1.38
  WS02006256WS02006235        6.08      6.09      6.86      3.81         0.01
  WS02006249WS02006248        0.01      0.01      0.01      5.82         0.01
  WS02006247WS02006245        0.01      0.01      0.01      5.84         0.01
  WS02006242WS02006240        0.01      0.01      0.41      0.01         0.01
  WS02006239WS02006238        0.70      0.70      0.85      0.01         0.01
  WS02006238WS02006235        0.81      0.81      0.97      0.01         0.01
  WS02006235WS02006234        0.01      0.01      0.74      6.10         0.01
  WS02006234WS02006232        0.41      0.41      1.14      0.01         0.01
  WS02006232WS02006231        0.01      0.01      1.14      0.01         0.01
  WS02006231WS02006230        0.01      0.01      0.01      6.11         0.01
  WS02006230WS02006229        1.88      4.35      1.88      6.22         1.88
  WS02006228WS02006109        1.40      1.58      1.40      5.94         1.40
  WS02006112WS02006115        0.01      0.01      0.91      0.01         0.01
  WS02006111WS02006112        0.01      0.01      5.79      0.01         0.01
  WS02006110WS02006113        0.01      0.01      1.48      0.01         0.01
  WS02006109WS02006110        0.26      0.26      1.58      0.27         0.01
  WS02004405WS02004406        0.01      0.01      0.01      0.80         0.01
  WS02004404WS02004405        0.01      0.01      0.01      5.99         0.01
  WS02003072WS02003073        0.01      0.01      0.01      5.70         0.01
  YS02001759YS02001757        5.53      5.53      5.64      0.01         0.01
  YS02001762YS02001759        5.50      5.50      5.53      0.01         0.01
  YS02001765YS02001762        5.47      5.47      5.50      0.01         0.01
  YS02001770YS02001767        5.43      5.43      5.43      0.01         0.54
  YS02001774YS02001770        5.40      5.40      5.49      0.01         0.01
  YS02001779YS02001774        5.14      5.14      5.49      0.01         0.01
  YS02001649YS02001757        5.51      5.51      5.64      0.01         0.01
  YS02001767YS02001765        5.43      5.43      5.47      0.01         0.01
  YS02006561YS02001783        0.01      0.01      0.15      0.01         0.01
  YS02001783YS02001784        0.15      0.15      0.27      0.01         0.01
  YS02001784YS02001785        0.16      0.27      0.16      1.11         0.15
  YS02001788YS02001790        0.11      0.11      1.55      0.01         0.01
  YS02001790YS02001791        1.55      1.55      1.68      0.01         0.01
  YS02001791YS02001793        1.68      1.68      1.97      0.01         0.01
  YS02001910YS02001907        0.01      0.01      0.27      0.01         0.01
  YS02001786YS02001788        0.11      0.16      0.11      0.58         0.10
  YS02001629YS02163301        5.40      5.40      5.42      0.01         0.01
  YS02001619YS02001622        4.71      4.71      4.81      0.01         0.02
  YS02001622YS02001625        4.81      4.81      5.31      0.01         0.01
  YS02001625YS02001629        4.73      4.73      5.31      0.01         0.01
  YS02163301YS02001633        5.42      5.42      5.47      0.01         0.01
  YS02163601YS02164001        5.46      5.46      5.51      0.01         0.01
  YS02164001YS02001641        5.46      5.46      5.48      0.01         0.02
  YS02001641YS02001644        5.48      5.48      5.48      0.01         0.70
  YS02001647YS02001649        5.27      5.27      5.51      0.01         0.01
  YS02006553YS02006556        0.01      0.01      0.41      0.01         0.01
  YS02006556YS02006558        0.05      0.05      0.53      0.01         0.01
  YS02001907YS02006553        1.13      1.13      1.36      0.01         0.01
  YS02006558YS02006561        0.01      0.01      0.01      0.94         0.01
  YS02001633YS02163601        5.45      5.45      5.51      0.01         0.01
  YS02001644YS02001647        5.27      5.27      5.48      0.01         0.01
  YS02001745YS02001748        0.01      0.01      4.33      0.01         0.01
  YS02001748YS02001751        4.44      4.44      4.76      0.01         0.01
  YS02001751YS02001754        4.76      4.76      5.18      0.01         0.01
  YS02001754YS02001757        5.25      5.25      5.64      0.01         0.01
  YS02001904YS02001907        0.01      0.01      0.46      0.01         0.01
  YS02001652YS02001649        5.29      5.29      5.51      0.01         0.01
  YS02001655YS02001652        4.78      4.78      5.24      0.01         0.01
  YS02001658YS02001655        4.35      4.35      4.78      0.01         0.01
  YS02001661YS02001658        0.05      0.05      4.35      0.01         0.01
  YS02001664YS02001661        0.01      0.01      0.70      0.01         0.01
  YS02001793JiankangQianchi        1.89      1.89      2.99      0.01         0.01
  YS02001757CaochengTiaoxuchi        4.42      4.42      5.64      0.01         0.01
  
  
  ***************
  Pumping Summary
  ***************
  
  ---------------------------------------------------------------------------------------------------------
                                                  Min       Avg       Max     Total     Power    % Time Off
                        Percent   Number of      Flow      Flow      Flow    Volume     Usage    Pump Curve
  Pump                 Utilized   Start-Ups       LPS       LPS       LPS  10^6 ltr     Kw-hr    Low   High
  ---------------------------------------------------------------------------------------------------------
  CC-Pump-1                0.00           0      0.00      0.00      0.00     0.000      0.00    0.0    0.0
  CC-Pump-2               75.61           1      0.00    198.93    200.00     4.225      5.83    0.0   13.2
  JK-Pump-1              100.00           1      0.00    212.76    300.00     4.919     54.59    0.0    0.0
  JK-Pump-2                0.00           0      0.00      0.00      0.00     0.000      0.00    0.0    0.0
  XR-Pump-1               21.28           1      0.00     90.42     95.00     0.542      3.49    0.0    0.0
  XR-Pump-2               80.85           1      0.00     94.73     95.00     2.137      9.69    0.0    0.0
  XR-Pump-3                0.00           0      0.00      0.00      0.00     0.000      0.00    0.0    0.0
  XR-Pump-4               80.85           1      0.00     94.73     95.00     2.137      9.69    0.0    0.0
  

  Analysis begun on:  Wed Jan  5 13:20:55 2022
  Analysis ended on:  Wed Jan  5 13:20:58 2022
  Total elapsed time: 00:00:03