
  EPA STORM WATER MANAGEMENT MODEL - VERSION 5.1 (Build 5.3.0.dev0)
  --------------------------------------------------------------

  WARNING 04: minimum elevation drop used for Conduit WS02004404WS02004405
  WARNING 03: negative offset ignored for Link YS02001904YS02001907
  
  *********************************************************
  NOTE: The summary statistics displayed in this report are
  based on results found at every computational time step,  
  not just on results from each reporting time step.
  *********************************************************
  
  ****************
  Analysis Options
  ****************
  Flow Units ............... LPS
  Process Models:
    Rainfall/Runoff ........ YES
    RDII ................... NO
    Snowmelt ............... NO
    Groundwater ............ NO
    Flow Routing ........... YES
    Ponding Allowed ........ NO
    Water Quality .......... NO
  Infiltration Method ...... HORTON
  Flow Routing Method ...... DYNWAVE
  Surcharge Method ......... EXTRAN
  Starting Date ............ 08/28/2015 08:00:00
  Ending Date .............. 08/28/2015 15:50:00
  Antecedent Dry Days ...... 8.0
  Report Time Step ......... 00:01:00
  Wet Time Step ............ 00:01:00
  Dry Time Step ............ 00:01:00
  Routing Time Step ........ 5.00 sec
  Variable Time Step ....... YES
  Maximum Trials ........... 8
  Number of Threads ........ 4
  Head Tolerance ........... 0.001500 m
  
  
  **************************        Volume         Depth
  Runoff Quantity Continuity     hectare-m            mm
  **************************     ---------       -------
  Total Precipitation ......         5.556        12.164
  Evaporation Loss .........         0.000         0.000
  Infiltration Loss ........         1.427         3.124
  Surface Runoff ...........         3.072         6.726
  Final Storage ............         1.058         2.316
  Continuity Error (%) .....        -0.016
  
  
  **************************        Volume        Volume
  Flow Routing Continuity        hectare-m      10^6 ltr
  **************************     ---------     ---------
  Dry Weather Inflow .......         0.616         6.165
  Wet Weather Inflow .......         3.071        30.708
  Groundwater Inflow .......         0.000         0.000
  RDII Inflow ..............         0.000         0.000
  External Inflow ..........         0.102         1.024
  External Outflow .........         1.790        17.903
  Flooding Loss ............         1.480        14.801
  Evaporation Loss .........         0.000         0.000
  Exfiltration Loss ........         0.000         0.000
  Initial Stored Volume ....         0.076         0.761
  Final Stored Volume ......         0.646         6.458
  Continuity Error (%) .....        -1.305
  
  
  *************************
  Highest Continuity Errors
  *************************
  Node HS02004842 (16.24%)
  Node YS02001884 (10.99%)
  Node JK-storage (-5.54%)
  Node YSB1171 (3.12%)
  Node HS02004817 (2.99%)
  
  
  ***************************
  Time-Step Critical Elements
  ***************************
  Link 3 (71.24%)
  Link WS02006252WS02006251 (21.74%)
  Link WS02006280WS02006229 (1.83%)
  
  
  ********************************
  Highest Flow Instability Indexes
  ********************************
  Link WS02006113WS02006111 (48)
  Link YS02163601YS02164001 (43)
  Link YS02163301YS02001633 (43)
  Link YS02001629YS02163301 (42)
  Link YS02001619YS02001622 (41)
  
  
  *************************
  Routing Time Step Summary
  *************************
  Minimum Time Step           :     0.50 sec
  Average Time Step           :     0.87 sec
  Maximum Time Step           :     5.00 sec
  Percent in Steady State     :    -0.00
  Average Iterations per Step :     4.54
  Percent Not Converging      :    20.36
  
  
  ***************************
  Subcatchment Runoff Summary
  ***************************
  
  ------------------------------------------------------------------------------------------------------------------------------
                            Total      Total      Total      Total     Imperv       Perv      Total       Total     Peak  Runoff
                           Precip      Runon       Evap      Infil     Runoff     Runoff     Runoff      Runoff   Runoff   Coeff
  Subcatchment                 mm         mm         mm         mm         mm         mm         mm    10^6 ltr      LPS
  ------------------------------------------------------------------------------------------------------------------------------
  sub0                      12.16       0.00       0.00       0.85      10.05       0.00      10.05        0.01     1.91   0.826
  sub1                      12.16       0.00       0.00       1.34       9.56       0.00       9.56        0.06    14.15   0.786
  sub2                      12.16       0.00       0.00       4.50       6.75       0.00       6.75        0.06    13.75   0.555
  sub3                      12.16       0.00       0.00       4.50       6.71       0.00       6.71        0.15    32.07   0.552
  sub4                      12.16       0.00       0.00       1.34       9.40       0.00       9.40        0.20    40.20   0.773
  sub5                      12.16       0.00       0.00       0.85       9.99       0.00       9.99        0.11    25.19   0.822
  sub7                      12.16       0.00       0.00       1.09       9.81       0.00       9.81        0.03     7.55   0.807
  sub8                      12.16       0.00       0.00       1.09       9.80       0.00       9.80        0.06    14.17   0.806
  sub9                      12.16       0.00       0.00       1.09       9.80       0.00       9.80        0.05    10.64   0.806
  sub10                     12.16       0.00       0.00       0.97       9.89       0.00       9.89        0.11    24.40   0.813
  sub11                     12.16       0.00       0.00       0.97       9.91       0.00       9.91        0.12    26.15   0.815
  sub12                     12.16       0.00       0.00       1.58       9.39       0.00       9.39        0.08    19.06   0.772
  sub14                     12.16       0.00       0.00       1.09       9.80       0.00       9.80        0.09    21.02   0.805
  sub15                     12.16       0.00       0.00       3.65       7.53       0.00       7.53        0.13    29.11   0.619
  sub16                     12.16       0.00       0.00       4.01       7.23       0.00       7.23        0.08    17.47   0.594
  sub17                     12.16       0.00       0.00       3.89       7.34       0.00       7.34        0.06    14.47   0.603
  sub22                     12.16       0.00       0.00       5.23       6.14       0.00       6.14        0.39    88.27   0.505
  sub23                     12.16       0.00       0.00       4.50       6.79       0.00       6.79        0.32    73.89   0.558
  sub60                     12.16       0.00       0.00       1.46       7.71       0.00       7.71        2.34   297.17   0.634
  sub61                     12.16       0.00       0.00       2.07       7.87       0.00       7.87        2.43   359.80   0.647
  sub62                     12.16       0.00       0.00       0.97       8.55       0.00       8.55        2.63   372.87   0.703
  sub63                     12.16       0.00       0.00       3.53       6.89       0.00       6.89        2.09   327.80   0.567
  sub64                     12.16       0.00       0.00       1.82       7.40       0.00       7.40        2.25   282.66   0.608
  sub65                     12.16       0.00       0.00       1.58       7.52       0.00       7.52        2.31   287.20   0.618
  sub66                     12.16       0.00       0.00       3.53       6.36       0.00       6.36        1.95   257.27   0.523
  sub67                     12.16       0.00       0.00       0.97       9.05       0.00       9.05        2.79   452.90   0.744
  sub68                     12.16       0.00       0.00       1.70       8.28       0.00       8.28        2.55   391.99   0.681
  sub69                     12.16       0.00       0.00       1.82       8.61       0.00       8.61        2.01   355.79   0.708
  sub70                     12.16       8.79       0.00       7.03      11.43       0.10      11.53        2.64   335.00   0.550
  sub71                     12.16       0.00       0.00       0.97       8.31       0.00       8.31        1.96   263.63   0.683
  sub72                     12.16       0.00       0.00       0.85       6.56       0.00       6.56        1.34   129.40   0.540
  sub73                     12.16      11.23       0.00       7.88      12.47       0.08      12.54        2.95   300.52   0.536
  sub74                     12.16       0.00       0.00       9.12       2.57       0.00       2.57        1.03   189.59   0.211
  
  
  ******************
  Node Depth Summary
  ******************
  
  ---------------------------------------------------------------------------------
                                 Average  Maximum  Maximum  Time of Max    Reported
                                   Depth    Depth      HGL   Occurrence   Max Depth
  Node                 Type       Meters   Meters   Meters  days hr:min      Meters
  ---------------------------------------------------------------------------------
  WS02001211           JUNCTION     0.66     0.73     5.57     0  03:10        0.73
  WS02001212           JUNCTION     0.39     0.46     5.53     0  03:10        0.46
  WS02001213           JUNCTION     0.61     0.73     5.49     0  03:10        0.73
  WS02003069           JUNCTION     0.43     0.58     5.17     0  03:10        0.58
  WS02003072           JUNCTION     0.49     0.64     5.01     0  03:10        0.64
  WS02003073           JUNCTION     0.30     0.39     4.46     0  03:11        0.39
  WS02003060           JUNCTION     0.38     0.51     5.45     0  03:09        0.51
  WS02003066           JUNCTION     0.22     0.32     5.88     0  03:08        0.32
  WS02003059           JUNCTION     0.67     0.79     5.48     0  03:10        0.79
  WS02003067           JUNCTION     0.55     0.74     6.06     0  03:07        0.74
  WS02004401           JUNCTION     0.65     0.95     6.95     0  03:05        0.95
  WS02004402           JUNCTION     0.68     0.97     6.93     0  03:05        0.97
  WS02004403           JUNCTION     0.70     0.98     6.91     0  03:05        0.97
  WS02004404           JUNCTION     0.78     1.04     6.89     0  03:05        1.04
  WS02004406           JUNCTION     0.78     1.02     6.85     0  03:05        1.01
  WS02004409           JUNCTION     0.47     0.74     6.51     0  03:07        0.74
  WS02004410           JUNCTION     0.49     0.75     6.47     0  03:07        0.75
  WS02004411           JUNCTION     0.50     0.75     6.43     0  03:07        0.75
  WS02004412           JUNCTION     0.52     0.75     6.39     0  03:07        0.75
  WS02004413           JUNCTION     0.68     0.90     6.37     0  03:07        0.90
  WS02004405           JUNCTION     0.77     1.03     6.88     0  03:05        1.03
  WS02006109           JUNCTION     0.72     1.09     7.71     0  03:02        1.08
  WS02006110           JUNCTION     0.72     1.01     7.59     0  03:03        1.00
  WS02006111           JUNCTION     0.21     0.34     7.05     0  03:04        0.34
  WS02006112           JUNCTION     0.81     1.18     7.06     0  02:39        1.15
  WS02006113           JUNCTION     0.32     0.50     7.40     0  03:02        0.50
  WS02006115           JUNCTION     0.54     0.86     7.00     0  03:05        0.86
  WS02006116           JUNCTION     0.62     0.93     6.97     0  03:05        0.93
  WS02006230           JUNCTION     0.67     1.15     7.89     0  03:02        1.15
  WS02006231           JUNCTION     0.44     0.81     7.93     0  03:02        0.80
  WS02006232           JUNCTION     0.56     0.92     7.96     0  03:03        0.91
  WS02006234           JUNCTION     0.47     0.83     7.99     0  03:02        0.83
  WS02006235           JUNCTION     0.49     0.85     8.02     0  03:02        0.84
  WS02006238           JUNCTION     0.52     0.88     8.02     0  03:02        0.87
  WS02006240           JUNCTION     0.39     0.77     8.06     0  03:02        0.76
  WS02006242           JUNCTION     0.43     0.82     8.09     0  03:02        0.81
  WS02006243           JUNCTION     0.29     0.69     8.11     0  03:04        0.69
  WS02006245           JUNCTION     0.26     0.64     8.13     0  03:04        0.64
  WS02006247           JUNCTION     0.28     0.64     8.14     0  03:04        0.64
  WS02006248           JUNCTION     0.23     0.57     8.16     0  03:04        0.57
  WS02006249           JUNCTION     0.26     0.57     8.17     0  03:04        0.57
  WS02006239           JUNCTION     0.46     0.83     8.04     0  03:02        0.83
  WS02006251           JUNCTION     0.24     0.54     8.21     0  03:03        0.54
  WS02006252           JUNCTION     0.20     0.35     8.59     0  03:00        0.35
  WS02006253           JUNCTION     0.27     0.57     8.22     0  03:04        0.57
  WS02006256           JUNCTION     1.07     1.20     8.13     0  05:00        1.20
  WS02004138           JUNCTION     0.15     0.17     7.42     0  00:20        0.17
  WS02004407           JUNCTION     0.21     0.32     6.64     0  03:06        0.32
  WS02006228           JUNCTION     0.72     1.16     7.81     0  03:02        1.15
  WS02006229           JUNCTION     0.69     1.16     7.86     0  03:02        1.16
  WS02006280           JUNCTION     0.07     0.19     8.46     0  03:02        0.19
  WS02006284           JUNCTION     0.37     0.55     8.95     0  03:02        0.55
  WS02006287           JUNCTION     0.11     0.28     9.24     0  03:01        0.28
  WSF200               JUNCTION     0.21     0.35     5.58     0  03:08        0.35
  HS02004901           JUNCTION     0.13     0.28    10.10     0  03:01        0.28
  HS02004881           JUNCTION     0.01     0.04     9.07     0  03:01        0.04
  HS02004876           JUNCTION     0.05     0.12     9.15     0  03:01        0.12
  HS02004870           JUNCTION     0.02     0.06     9.35     0  03:01        0.06
  HS02004862           JUNCTION     0.02     0.07     9.46     0  03:01        0.07
  HS02004856           JUNCTION     0.08     0.13     9.55     0  03:01        0.13
  HS02004852           JUNCTION     0.01     0.05     9.56     0  03:01        0.05
  HS02004848           JUNCTION     0.01     0.05     9.65     0  03:01        0.05
  HS02004842           JUNCTION     0.33     0.38     9.65     0  03:01        0.38
  HS02004837           JUNCTION     0.03     0.07     9.65     0  03:01        0.07
  HS02004830           JUNCTION     0.04     0.08     9.55     0  03:01        0.08
  HS02004824           JUNCTION     0.03     0.06     9.46     0  03:01        0.06
  HS02004817           JUNCTION     0.44     0.60     9.44     0  03:01        0.60
  HS02004807           JUNCTION     0.13     0.27     9.44     0  03:01        0.27
  HS02004802           JUNCTION     0.17     0.30     9.43     0  03:01        0.30
  HS02004799           JUNCTION     0.13     0.33     9.54     0  03:01        0.33
  HS02004792           JUNCTION     0.04     0.14     9.66     0  03:01        0.14
  HS02004788           JUNCTION     0.03     0.10    10.00     0  03:01        0.10
  HS02004785           JUNCTION     0.05     0.17    10.07     0  03:01        0.17
  HS02004777           JUNCTION     0.15     0.30    10.10     0  03:01        0.30
  HS02004770           JUNCTION     0.12     0.27    10.10     0  03:01        0.27
  HS02004480           JUNCTION     0.09     0.26     9.50     0  03:01        0.26
  HS02004479           JUNCTION     0.13     0.30     9.50     0  03:01        0.30
  HS02004478           JUNCTION     0.07     0.18     9.41     0  03:01        0.18
  YS02001745           JUNCTION     0.70     0.89     8.41     0  03:23        0.89
  YS02001748           JUNCTION     1.09     2.27     9.35     0  02:39        1.38
  YS02001751           JUNCTION     1.27     2.13     9.01     0  02:39        1.54
  YS02001754           JUNCTION     1.52     2.07     8.67     0  02:39        1.82
  YS02001762           JUNCTION     1.72     2.04     8.44     0  03:25        2.03
  YS02001765           JUNCTION     1.68     1.98     8.43     0  03:24        1.97
  YS02001767           JUNCTION     1.64     1.94     8.43     0  03:20        1.92
  YS02001770           JUNCTION     1.64     1.91     8.41     0  03:25        1.91
  YS02001774           JUNCTION     1.70     1.98     8.40     0  03:24        1.97
  YS02001779           JUNCTION     1.45     1.68     8.37     0  02:39        1.68
  YS02001882           JUNCTION     0.54     1.63     8.34     0  02:53        1.60
  YS02001884           JUNCTION     0.63     1.72     8.34     0  02:53        1.70
  YS02001759           JUNCTION     1.76     2.07     8.44     0  03:08        2.06
  YS02001887           JUNCTION     0.71     1.79     8.33     0  02:53        1.78
  YS02001890           JUNCTION     0.74     1.81     8.32     0  02:53        1.80
  YS02001898           JUNCTION     0.51     1.56     8.29     0  02:53        1.55
  YS02001901           JUNCTION     0.62     1.68     8.28     0  02:53        1.67
  YS02001904           JUNCTION     0.60     1.64     8.27     0  02:53        1.63
  YS02001907           JUNCTION     0.93     1.96     8.25     0  02:53        1.96
  YS02001910           JUNCTION     0.72     1.78     8.28     0  02:53        1.77
  YS02001915           JUNCTION     0.52     1.59     8.31     0  02:53        1.58
  YS02001918           JUNCTION     0.27     1.27     8.34     0  02:53        1.26
  YS02001619           JUNCTION     1.24     1.61     8.54     0  02:30        1.47
  YS02001629           JUNCTION     1.59     1.85     8.40     0  02:37        1.84
  YS02001641           JUNCTION     1.69     1.95     8.39     0  02:41        1.93
  YS02001644           JUNCTION     1.69     1.92     8.35     0  02:41        1.92
  YS02001652           JUNCTION     1.54     2.16     8.76     0  02:32        1.96
  YS02001655           JUNCTION     1.30     2.20     9.05     0  02:30        1.93
  YS02001920           JUNCTION     0.37     1.35     8.36     0  02:54        1.34
  YS02001923           JUNCTION     0.21     1.10     8.36     0  02:53        1.10
  YS02001926           JUNCTION     0.26     0.92     8.37     0  02:54        0.90
  YS02001929           JUNCTION     0.15     0.70     8.39     0  02:54        0.63
  YS02001658           JUNCTION     1.03     2.30     9.44     0  02:35        1.89
  YS02001661           JUNCTION     0.81     2.36     9.77     0  02:51        2.21
  YS02001664           JUNCTION     0.36     0.57     8.50     0  02:49        0.56
  YS02001622           JUNCTION     1.26     1.62     8.52     0  02:36        1.49
  YS02001633           JUNCTION     1.68     2.00     8.45     0  02:39        1.94
  YS02001649           JUNCTION     1.73     2.05     8.44     0  02:37        2.05
  YS02001757           JUNCTION     1.85     2.17     8.44     0  03:28        2.17
  YS02001895           JUNCTION     0.50     1.56     8.30     0  02:53        1.55
  YS02001625           JUNCTION     1.54     1.78     8.38     0  02:36        1.78
  YS02163301           JUNCTION     1.62     1.94     8.46     0  02:39        1.88
  YS02163601           JUNCTION     1.73     2.02     8.42     0  02:41        1.98
  YS02164001           JUNCTION     1.67     1.95     8.41     0  02:41        1.91
  YS02001647           JUNCTION     1.52     1.81     8.42     0  02:51        1.79
  YSB1154              JUNCTION     0.26     0.45     9.51     0  03:01        0.45
  YSB6556              JUNCTION     0.16     0.34     9.51     0  03:01        0.34
  YSB1174              JUNCTION     0.22     0.40     9.51     0  03:01        0.40
  YSB1171              JUNCTION     0.41     0.60     9.51     0  03:01        0.60
  YS02006553           JUNCTION     0.93     1.96     8.25     0  03:00        1.96
  YS02006561           JUNCTION     0.31     1.09     7.75     0  02:53        1.07
  YS02006556           JUNCTION     0.90     1.92     8.23     0  02:58        1.91
  YS02006558           JUNCTION     0.94     1.96     8.23     0  02:59        1.95
  YS02001783           JUNCTION     0.54     2.18     8.32     0  02:42        1.46
  YS02001784           JUNCTION     0.56     2.22     8.29     0  02:42        1.41
  YS02001786           JUNCTION     0.51     1.90     7.93     0  02:42        1.25
  YS02001788           JUNCTION     0.45     1.99     7.97     0  02:42        1.12
  YS02001790           JUNCTION     0.57     1.96     7.60     0  02:41        1.29
  YS02001791           JUNCTION     0.54     1.59     7.06     0  02:41        1.27
  YS02001793           JUNCTION     0.73     1.95     6.79     0  02:42        1.80
  WS02004139           JUNCTION     0.60     0.67     5.58     0  03:10        0.67
  WSC                  OUTFALL      0.29     0.39     1.06     0  03:11        0.39
  3                    OUTFALL      0.10     0.19     6.19     0  05:00        0.19
  4                    OUTFALL      0.00     0.07     7.07     0  03:04        0.07
  5                    OUTFALL      0.00     0.00     5.00     0  00:00        0.00
  JK-storage           STORAGE      2.47     5.80     6.60     0  02:42        5.80
  CC-storage           STORAGE      1.10     1.40     8.40     0  03:22        1.40
  XR-storage           STORAGE      6.89     7.72     5.72     0  02:50        7.72
  
  
  *******************
  Node Inflow Summary
  *******************
  
  -------------------------------------------------------------------------------------------------
                                  Maximum  Maximum                  Lateral       Total        Flow
                                  Lateral    Total  Time of Max      Inflow      Inflow     Balance
                                   Inflow   Inflow   Occurrence      Volume      Volume       Error
  Node                 Type           LPS      LPS  days hr:min    10^6 ltr    10^6 ltr     Percent
  -------------------------------------------------------------------------------------------------
  WS02001211           JUNCTION      7.35   293.19     0  04:47       0.207        7.19       0.428
  WS02001212           JUNCTION      0.00   293.83     0  04:47           0        7.16       0.230
  WS02001213           JUNCTION      0.00   294.45     0  04:46           0        7.14       0.278
  WS02003069           JUNCTION      0.32   941.19     0  03:09     0.00902        14.3       0.180
  WS02003072           JUNCTION      0.00   941.04     0  03:10           0        14.3       0.228
  WS02003073           JUNCTION      1.82   942.80     0  03:10      0.0514        14.3       0.256
  WS02003060           JUNCTION     16.53   940.98     0  03:09       0.466        14.3       0.169
  WS02003066           JUNCTION      0.00   639.15     0  03:08           0        6.78       0.059
  WS02003059           JUNCTION      0.00   295.67     0  04:46           0        7.13       0.484
  WS02003067           JUNCTION      0.00   638.93     0  03:07           0        6.79       0.126
  WS02004401           JUNCTION      0.00   645.36     0  03:05           0           7       0.263
  WS02004402           JUNCTION      0.00   643.95     0  03:05           0        6.98       0.253
  WS02004403           JUNCTION      0.00   643.15     0  03:05           0        6.96       0.234
  WS02004404           JUNCTION      0.16   643.03     0  03:05     0.00457        6.95       0.180
  WS02004406           JUNCTION      0.00   643.17     0  03:05           0        6.92       0.441
  WS02004409           JUNCTION      0.00   642.93     0  03:06           0        6.88       0.199
  WS02004410           JUNCTION      0.00   641.17     0  03:06           0        6.87       0.231
  WS02004411           JUNCTION      0.00   640.02     0  03:06           0        6.85       0.243
  WS02004412           JUNCTION      0.00   639.36     0  03:07           0        6.84       0.268
  WS02004413           JUNCTION      0.00   638.96     0  03:07           0        6.82       0.405
  WS02004405           JUNCTION      0.04   643.14     0  03:05     0.00107        6.94       0.270
  WS02006109           JUNCTION      1.23   644.08     0  03:03      0.0347        7.03       0.238
  WS02006110           JUNCTION      0.00   644.11     0  03:03           0        7.02       0.223
  WS02006111           JUNCTION      0.00   675.36     0  03:03           0        6.99       0.046
  WS02006112           JUNCTION     14.47   652.63     0  03:03      0.0629        7.05       0.369
  WS02006113           JUNCTION      0.00   645.73     0  03:02           0           7       0.091
  WS02006115           JUNCTION      0.00   652.76     0  03:03           0        7.03       0.227
  WS02006116           JUNCTION      0.00   646.47     0  03:03           0        7.01       0.222
  WS02006230           JUNCTION     10.28   331.58     0  03:14        0.29        5.14       0.213
  WS02006231           JUNCTION      0.00   318.37     0  03:14           0        4.86       0.124
  WS02006232           JUNCTION      0.00   318.27     0  03:14           0        4.87       0.245
  WS02006234           JUNCTION      0.00   316.54     0  03:13           0        4.87       0.074
  WS02006235           JUNCTION      0.00   316.44     0  03:13           0        4.91       0.156
  WS02006238           JUNCTION      0.00   242.76     0  03:12           0        2.31       0.189
  WS02006240           JUNCTION      0.00   239.95     0  03:12           0         2.3       0.200
  WS02006242           JUNCTION      0.00   239.56     0  03:11           0        2.29       0.220
  WS02006243           JUNCTION      0.00   237.11     0  03:10           0        2.27      -0.499
  WS02006245           JUNCTION      0.00   235.39     0  03:10           0        2.28       0.229
  WS02006247           JUNCTION      0.00   241.42     0  03:00           0        2.28      -0.008
  WS02006248           JUNCTION      0.00   254.63     0  03:00           0        2.27      -0.179
  WS02006249           JUNCTION      0.00   273.74     0  03:04           0         2.3       0.291
  WS02006239           JUNCTION      0.00   242.52     0  03:12           0         2.3       0.238
  WS02006251           JUNCTION      0.08   276.14     0  03:00     0.00217        2.31      -0.025
  WS02006252           JUNCTION      0.00   200.00     0  03:00           0        1.93       0.004
  WS02006253           JUNCTION      1.91    81.00     0  03:01     0.00814       0.378      -0.029
  WS02006256           JUNCTION      0.00   600.00     0  05:00           0        6.23       0.043
  WS02004138           JUNCTION      0.00   285.00     0  00:20           0        7.01       0.056
  WS02004407           JUNCTION      0.00   643.18     0  03:05           0        6.89       0.086
  WS02006228           JUNCTION      0.00   643.02     0  03:03           0        7.01       0.168
  WS02006229           JUNCTION      0.00   641.44     0  03:02           0        7.02       0.147
  WS02006280           JUNCTION      0.00   375.54     0  03:02           0        1.89       0.004
  WS02006284           JUNCTION      0.10   375.54     0  03:02      0.0027        1.89       0.064
  WS02006287           JUNCTION      0.00   375.27     0  03:01           0        1.89       0.038
  WSF200               JUNCTION      0.00   639.23     0  03:08           0        6.78       0.054
  HS02004901           JUNCTION     17.47    17.47     0  03:01      0.0757      0.0759       2.380
  HS02004881           JUNCTION      7.55    79.19     0  03:01      0.0331       0.357       0.075
  HS02004876           JUNCTION     14.15    72.10     0  03:01      0.0636       0.324       0.171
  HS02004870           JUNCTION     14.17    58.27     0  03:01      0.0626       0.261       0.043
  HS02004862           JUNCTION     13.95    44.46     0  03:01      0.0685       0.198       0.089
  HS02004856           JUNCTION     10.64    30.79     0  03:01      0.0471       0.131       1.114
  HS02004852           JUNCTION      0.00    20.44     0  03:01           0       0.084       0.069
  HS02004848           JUNCTION     32.07    32.07     0  03:01       0.151       0.151       0.033
  HS02004842           JUNCTION      0.00    11.42     0  03:01           0      0.0801      19.389
  HS02004837           JUNCTION     30.75    41.91     0  03:01       0.288       0.355       0.229
  HS02004830           JUNCTION      0.15    41.84     0  03:01     0.00423       0.346       0.359
  HS02004824           JUNCTION     40.25    81.79     0  03:01       0.197       0.542       0.100
  HS02004817           JUNCTION      0.60    82.18     0  03:01      0.0169       0.558       3.079
  HS02004807           JUNCTION     26.15   107.24     0  03:01       0.115       0.657       0.656
  HS02004802           JUNCTION      0.00   106.49     0  03:01           0       0.653       0.618
  HS02004799           JUNCTION     21.02   227.51     0  03:01      0.0932        1.06       0.236
  HS02004792           JUNCTION     88.55   207.33     0  03:01       0.396       0.966       0.043
  HS02004788           JUNCTION     30.78   119.37     0  03:01       0.177       0.571       0.069
  HS02004785           JUNCTION      0.15    89.79     0  03:01     0.00423       0.396       0.125
  HS02004777           JUNCTION      0.03    90.24     0  03:01    0.000846       0.397       1.326
  HS02004770           JUNCTION     73.89    90.93     0  03:01       0.324       0.398       0.787
  HS02004480           JUNCTION      0.00   269.27     0  03:01           0        1.25       0.099
  HS02004479           JUNCTION      0.00    42.82     0  03:02           0       0.204       0.360
  HS02004478           JUNCTION      0.00   375.17     0  03:01           0        1.89       0.018
  YS02001745           JUNCTION    297.18   392.49     0  02:39        2.34        2.35       0.487
  YS02001748           JUNCTION      0.04   582.45     0  02:39     0.00127        2.33       0.980
  YS02001751           JUNCTION      0.01   343.57     0  02:30     0.00031         2.3       1.035
  YS02001754           JUNCTION      0.26   308.56     0  03:01     0.00733        2.29       1.096
  YS02001762           JUNCTION      0.00   310.97     0  02:50           0        1.63       1.302
  YS02001765           JUNCTION      0.00   310.92     0  02:50           0        1.63       1.496
  YS02001767           JUNCTION      0.54   310.98     0  02:50      0.0151        1.65       2.181
  YS02001770           JUNCTION    373.02   405.67     0  03:25        2.63        2.88       1.090
  YS02001774           JUNCTION      0.00   406.17     0  03:25           0        1.46       1.741
  YS02001779           JUNCTION      0.01   406.62     0  03:25    0.000141        1.43       1.082
  YS02001882           JUNCTION      0.00    36.12     0  02:45           0      0.0197      12.633
  YS02001884           JUNCTION      0.00    67.03     0  02:43           0      0.0552      12.349
  YS02001759           JUNCTION    359.84   611.58     0  02:50        2.43        3.78       0.608
  YS02001887           JUNCTION    453.35   453.46     0  03:01         2.8        2.83       0.300
  YS02001890           JUNCTION      0.00   453.43     0  03:01           0        2.79       0.329
  YS02001898           JUNCTION      0.00   453.92     0  03:01           0        2.77       0.117
  YS02001901           JUNCTION      0.00   454.22     0  03:01           0        2.77       0.249
  YS02001904           JUNCTION      0.00   453.85     0  03:01           0        2.77       0.227
  YS02001907           JUNCTION      0.00   876.90     0  02:59           0        6.12       0.398
  YS02001910           JUNCTION      0.00   456.43     0  02:55           0        3.37       0.351
  YS02001915           JUNCTION    263.65   456.61     0  02:55        1.96        3.39       0.178
  YS02001918           JUNCTION      0.00   219.50     0  02:55           0        1.44       0.127
  YS02001619           JUNCTION    257.27   257.27     0  03:01        1.95        1.95       0.623
  YS02001629           JUNCTION      0.00   214.36     0  02:29           0        1.62       1.784
  YS02001641           JUNCTION      0.00   417.72     0  02:47           0        3.83       0.550
  YS02001644           JUNCTION    282.70  1110.45     0  03:23        2.25         9.4       0.281
  YS02001652           JUNCTION      0.00   373.87     0  03:01           0        2.04       1.132
  YS02001655           JUNCTION      0.15   438.33     0  02:31     0.00434        2.06       1.184
  YS02001920           JUNCTION      2.87   219.70     0  02:55      0.0809        1.43       0.205
  YS02001923           JUNCTION      0.04   233.55     0  02:55     0.00106        1.34       0.047
  YS02001926           JUNCTION      0.05   191.80     0  02:54     0.00147        1.34       0.249
  YS02001929           JUNCTION    129.40   129.40     0  03:01        1.34        1.34       0.040
  YS02001658           JUNCTION      0.00   648.85     0  02:35           0         2.1       1.088
  YS02001661           JUNCTION      0.00   676.99     0  02:50           0        2.78      -0.138
  YS02001664           JUNCTION    327.80   365.82     0  02:49        2.09        2.76       0.253
  YS02001622           JUNCTION      0.00   257.46     0  03:01           0        1.94       1.658
  YS02001633           JUNCTION    287.40   417.65     0  02:47        2.32        3.89       0.829
  YS02001649           JUNCTION      0.00   888.84     0  02:47           0        5.67       0.660
  YS02001757           JUNCTION      0.00  1678.10     0  02:48           0        8.14       1.146
  YS02001895           JUNCTION      0.00   453.78     0  03:01           0        2.78       0.177
  YS02001625           JUNCTION      0.00   257.37     0  03:01           0         1.9       2.065
  YS02163301           JUNCTION      0.00   210.81     0  02:32           0         1.6       1.520
  YS02163601           JUNCTION      0.11   417.57     0  02:47      0.0031        3.85       0.784
  YS02164001           JUNCTION      0.00   417.70     0  02:47           0        3.83       0.517
  YS02001647           JUNCTION      0.00   633.87     0  02:47           0         4.9       0.578
  YSB1154              JUNCTION     25.19    25.19     0  03:01       0.113       0.114       1.285
  YSB6556              JUNCTION      0.00    24.91     0  03:01           0       0.115       1.100
  YSB1174              JUNCTION     19.06    19.06     0  03:01      0.0821      0.0827       1.581
  YSB1171              JUNCTION      0.00    43.19     0  03:01           0       0.203       3.219
  YS02006553           JUNCTION      0.00   667.17     0  03:17           0         5.9       0.268
  YS02006561           JUNCTION      0.00   964.35     0  03:01           0        8.42       0.008
  YS02006556           JUNCTION      0.00   667.34     0  03:17           0         5.9       0.191
  YS02006558           JUNCTION    392.87   964.57     0  03:01        2.57        8.45       0.063
  YS02001783           JUNCTION      0.00   964.25     0  03:00           0        8.42       0.028
  YS02001784           JUNCTION      1.06   965.32     0  03:00      0.0299        8.45       0.046
  YS02001786           JUNCTION      0.06   965.28     0  03:01     0.00159        8.44       0.040
  YS02001788           JUNCTION      0.07   965.41     0  03:00       0.002        8.44       0.024
  YS02001790           JUNCTION      0.15   965.53     0  03:00     0.00437        8.44       0.029
  YS02001791           JUNCTION      0.00   965.61     0  03:00           0        8.44       0.014
  YS02001793           JUNCTION      0.00   965.61     0  03:00           0        8.44       0.005
  WS02004139           JUNCTION      0.32   285.35     0  00:20     0.00905        7.02       0.456
  WSC                  OUTFALL       0.00   942.78     0  03:11           0        14.3       0.000
  3                    OUTFALL       0.00   466.90     0  05:00           0        3.61       0.000
  4                    OUTFALL       0.00    53.29     0  03:04           0      0.0212       0.000
  5                    OUTFALL       0.00     0.00     0  00:00           0           0       0.000 ltr
  JK-storage           STORAGE       0.00   965.57     0  03:00           0        8.59      -5.250
  CC-storage           STORAGE       0.00  1677.85     0  02:48           0        5.92       1.113
  XR-storage           STORAGE     690.11   690.11     0  03:01        9.61        10.2      -0.000
  
  
  **********************
  Node Surcharge Summary
  **********************
  
  Surcharging occurs when water rises above the top of the highest conduit.
  ---------------------------------------------------------------------
                                               Max. Height   Min. Depth
                                   Hours       Above Crown    Below Rim
  Node                 Type      Surcharged         Meters       Meters
  ---------------------------------------------------------------------
  WS02004404           JUNCTION        0.17          0.040        2.740
  WS02004406           JUNCTION        0.10          0.016        2.434
  WS02004405           JUNCTION        0.13          0.028        2.772
  WS02006109           JUNCTION        1.26          0.269        1.551
  WS02006110           JUNCTION        0.72          0.096        1.754
  WS02006112           JUNCTION        0.82          0.180        1.500
  WS02006230           JUNCTION        0.13          0.070        1.500
  WS02006231           JUNCTION        0.18          0.097        1.433
  WS02006232           JUNCTION        0.71          0.224        1.256
  WS02006234           JUNCTION        0.24          0.114        1.126
  WS02006235           JUNCTION        0.36          0.144        1.146
  WS02006238           JUNCTION        0.41          0.161        1.269
  WS02006240           JUNCTION        0.16          0.055        1.335
  WS02006242           JUNCTION        0.21          0.091        0.729
  WS02006239           JUNCTION        0.21          0.093        1.197
  WS02006228           JUNCTION        1.24          0.326        1.874
  YS02001748           JUNCTION        5.10          1.190        0.000
  YS02001751           JUNCTION        5.28          1.129        0.071
  YS02001754           JUNCTION        5.48          1.015        0.135
  YS02001762           JUNCTION        5.64          1.035        0.115
  YS02001765           JUNCTION        5.61          0.981        0.119
  YS02001767           JUNCTION        5.59          0.938        0.092
  YS02001770           JUNCTION        5.57          0.884        0.036
  YS02001774           JUNCTION        5.63          0.977        0.073
  YS02001779           JUNCTION        5.46          0.680        0.000
  YS02001882           JUNCTION        0.78          0.627        0.203
  YS02001884           JUNCTION        0.81          0.660        0.210
  YS02001759           JUNCTION        5.66          1.073        0.137
  YS02001887           JUNCTION        0.90          0.745        0.205
  YS02001890           JUNCTION        0.93          0.760        0.000
  YS02001898           JUNCTION        0.73          0.526        0.214
  YS02001901           JUNCTION        0.87          0.676        0.194
  YS02001904           JUNCTION        0.84          0.636        0.214
  YS02001907           JUNCTION        1.49          0.950        0.000
  YS02001910           JUNCTION        0.97          0.777        0.323
  YS02001915           JUNCTION        0.77          0.589        0.411
  YS02001918           JUNCTION        0.52          0.270        0.540
  YS02001619           JUNCTION        5.26          0.610        0.000
  YS02001629           JUNCTION        5.27          0.470        0.000
  YS02001641           JUNCTION        5.62          0.953        0.147
  YS02001644           JUNCTION        5.62          0.920        0.000
  YS02001652           JUNCTION        5.52          1.130        0.000
  YS02001655           JUNCTION        5.29          1.200        0.000
  YS02001920           JUNCTION        0.55          0.347        0.793
  YS02001658           JUNCTION        5.13          1.300        0.000
  YS02001661           JUNCTION        0.26          1.293        0.097
  YS02001622           JUNCTION        5.29          0.620        0.000
  YS02001633           JUNCTION        5.61          0.977        0.083
  YS02001649           JUNCTION        5.64          1.050        0.000
  YS02001757           JUNCTION        5.74          1.175        0.035
  YS02001895           JUNCTION        0.75          0.558        0.192
  YS02001625           JUNCTION        5.55          0.780        0.000
  YS02163301           JUNCTION        5.58          0.941        0.089
  YS02163601           JUNCTION        5.64          1.022        0.058
  YS02164001           JUNCTION        5.61          0.953        0.147
  YS02001647           JUNCTION        5.53          0.807        0.093
  YS02006553           JUNCTION        1.56          0.965        0.225
  YS02006561           JUNCTION        0.65          0.294        0.856
  YS02006556           JUNCTION        1.19          0.880        0.470
  YS02006558           JUNCTION        1.16          0.858        0.542
  YS02001783           JUNCTION        1.19          1.379        0.221
  YS02001784           JUNCTION        1.24          1.422        0.068
  YS02001786           JUNCTION        1.20          1.101        0.329
  YS02001788           JUNCTION        1.19          1.194        0.286
  YS02001790           JUNCTION        2.24          1.157        0.000
  YS02001791           JUNCTION        2.27          0.793        1.127
  YS02001793           JUNCTION        2.34          0.954        1.646
  
  
  *********************
  Node Flooding Summary
  *********************
  
  Flooding refers to all water that overflows a node, whether it ponds or not.
  --------------------------------------------------------------------------
                                                             Total   Maximum
                                 Maximum   Time of Max       Flood    Ponded
                        Hours       Rate    Occurrence      Volume     Depth
  Node                 Flooded       LPS   days hr:min    10^6 ltr    Meters
  --------------------------------------------------------------------------
  YS02001748              0.01    131.64      0  02:39       0.000     0.000
  YS02001779              3.02    406.48      0  03:25       1.411     0.000
  YS02001890              0.01      1.40      0  02:53       0.000     0.000
  YS02001907              0.38    296.86      0  02:59       0.207     0.000
  YS02001619              0.01     30.32      0  02:35       0.000     0.000
  YS02001629              0.01     37.56      0  02:39       0.000     0.000
  YS02001644              4.89   1110.37      0  03:23       7.816     0.000
  YS02001652              0.01     63.84      0  02:32       0.000     0.000
  YS02001655              0.01    296.89      0  02:33       0.001     0.000
  YS02001658              0.01    316.71      0  02:35       0.000     0.000
  YS02001622              0.01     30.89      0  02:36       0.000     0.000
  YS02001649              0.09     48.68      0  02:53       0.004     0.000
  YS02001625              0.87    169.33      0  03:01       0.249     0.000
  YS02001790              0.01    115.75      0  02:41       0.000     0.000
  JK-storage              2.14    665.54      0  03:01       2.837     0.000
  XR-storage              3.77    415.10      0  03:40       2.275     0.000
  
  
  **********************
  Storage Volume Summary
  **********************
  
  --------------------------------------------------------------------------------------------------
                         Average     Avg  Evap Exfil       Maximum     Max    Time of Max    Maximum
                          Volume    Pcnt  Pcnt  Pcnt        Volume    Pcnt     Occurrence    Outflow
  Storage Unit           1000 m3    Full  Loss  Loss       1000 m3    Full    days hr:min        LPS
  --------------------------------------------------------------------------------------------------
  JK-storage               0.124      43     0     0         0.291     100       0  02:42     600.00
  CC-storage               3.052      19     0     0         3.899      25       0  03:22     216.41
  XR-storage               0.827      89     0     0         0.926     100       0  02:50     285.00
  
  
  ***********************
  Outfall Loading Summary
  ***********************
  
  -----------------------------------------------------------
                         Flow       Avg       Max       Total
                         Freq      Flow      Flow      Volume
  Outfall Node           Pcnt       LPS       LPS    10^6 ltr
  -----------------------------------------------------------
  WSC                   99.99    562.24    942.78      14.272
  3                     94.44    179.22    466.90       3.610
  4                      3.49     29.28     53.29       0.021
  5                      0.00      0.00      0.00       0.000
  -----------------------------------------------------------
  System                49.48    770.73   1196.93      17.903
  
  
  ********************
  Link Flow Summary
  ********************
  
  -----------------------------------------------------------------------------
                                 Maximum  Time of Max   Maximum    Max/    Max/
                                  |Flow|   Occurrence   |Veloc|    Full    Full
  Link                 Type          LPS  days hr:min     m/sec    Flow   Depth
  -----------------------------------------------------------------------------
  WS02003066WSF200     CONDUIT    639.23     0  03:08      2.79    0.11    0.26
  WS02006287WS02006284 CONDUIT    375.44     0  03:02      1.98    0.17    0.29
  WS02006284WS02006280 CONDUIT    375.54     0  03:02      2.22    0.16    0.27
  WS02006280WS02006229 CONDUIT    375.58     0  03:02      3.58    0.08    0.19
  WS02006229WS02006228 CONDUIT    643.02     0  03:03      1.28    2.13    1.00
  WS02006256WS02006235 CONDUIT    166.25     0  00:01      2.58    1.76    1.00
  WS02006253WS02006251 CONDUIT     76.06     0  03:00      0.58    0.23    0.79
  WS02006252WS02006251 CONDUIT    200.34     0  03:00      1.97    0.74    0.76
  WS02006251WS02006249 CONDUIT    273.74     0  03:04      0.97    0.79    0.80
  WS02006249WS02006248 CONDUIT    254.63     0  03:00      1.03    1.39    0.80
  WS02006248WS02006247 CONDUIT    241.42     0  03:00      0.97    0.53    0.86
  WS02006247WS02006245 CONDUIT    235.39     0  03:10      0.92    1.87    0.91
  WS02006245WS02006243 CONDUIT    237.11     0  03:10      0.96    0.70    0.95
  WS02006243WS02006242 CONDUIT    239.56     0  03:11      0.78    0.51    0.99
  WS02006242WS02006240 CONDUIT    239.95     0  03:12      0.67    0.95    1.00
  WS02006240WS02006239 CONDUIT    242.52     0  03:12      0.69    0.76    1.00
  WS02006239WS02006238 CONDUIT    242.76     0  03:12      0.67    0.78    1.00
  WS02006238WS02006235 CONDUIT    242.80     0  03:12      1.25    0.54    1.00
  WS02006235WS02006234 CONDUIT    316.54     0  03:13      0.93    3.34    1.00
  WS02006234WS02006232 CONDUIT    318.27     0  03:14      1.13    0.64    1.00
  WS02006232WS02006231 CONDUIT    318.37     0  03:14      0.92    0.67    1.00
  WS02006231WS02006230 CONDUIT    321.30     0  03:14      1.27    4.87    1.00
  WS02006230WS02006229 CONDUIT    334.90     0  03:14      0.87    7.45    1.00
  WS02006228WS02006109 CONDUIT    642.85     0  03:03      1.28    2.81    1.00
  WS02006116WS02004401 CONDUIT    645.36     0  03:05      0.84    0.89    0.94
  WS02006115WS02006116 CONDUIT    646.47     0  03:03      0.90    0.83    0.87
  WS02006113WS02006111 CONDUIT    675.36     0  03:03      2.60    0.81    0.52
  WS02006112WS02006115 CONDUIT    652.76     0  03:03      0.86    0.39    0.92
  WS02006111WS02006112 CONDUIT    642.15     0  03:03      1.70    0.31    0.71
  WS02006110WS02006113 CONDUIT    645.73     0  03:02      1.48    0.59    0.82
  WS02006109WS02006110 CONDUIT    644.11     0  03:03      1.28    1.24    1.00
  WS02004411WS02004412 CONDUIT    639.36     0  03:07      1.01    0.91    0.75
  WS02004401WS02004402 CONDUIT    643.95     0  03:05      0.83    0.77    0.96
  WS02004413WS02003067 CONDUIT    638.93     0  03:07      1.22    0.27    0.63
  WS02004412WS02004413 CONDUIT    638.96     0  03:07      0.92    0.43    0.83
  WS02004410WS02004411 CONDUIT    640.02     0  03:06      1.02    0.87    0.75
  WS02004409WS02004410 CONDUIT    641.17     0  03:06      1.03    0.83    0.74
  WS02004407WS02004409 CONDUIT    642.93     0  03:06      1.52    0.23    0.53
  WS02004406WS02004407 CONDUIT    643.18     0  03:05      1.17    0.29    0.66
  WS02004405WS02004406 CONDUIT    643.17     0  03:05      0.82    1.27    1.00
  WS02004404WS02004405 CONDUIT    643.10     0  03:05      0.84    6.30    1.00
  WS02004403WS02004404 CONDUIT    642.86     0  03:05      0.82    0.46    0.99
  WS02004402WS02004403 CONDUIT    643.15     0  03:05      0.83    0.92    0.97
  WS02004139WS02001211 CONDUIT    285.84     0  04:47      0.69    0.36    0.54
  WS02004138WS02004139 CONDUIT    285.03     0  00:20      2.94    0.06    0.39
  WS02003067WS02003066 CONDUIT    639.15     0  03:08      1.33    0.20    0.44
  WS02001213WS02003059 CONDUIT    295.67     0  04:46      0.65    0.49    0.75
  WS02001212WS02001213 CONDUIT    294.45     0  04:46      1.19    0.45    0.44
  WS02001211WS02001212 CONDUIT    293.83     0  04:47      0.67    0.22    0.60
  WS02003072WS02003073 CONDUIT    940.98     0  03:10      1.73    2.03    0.49
  WS02003069WS02003072 CONDUIT    941.04     0  03:10      1.62    0.45    0.51
  WS02003060WS02003069 CONDUIT    940.87     0  03:09      1.87    0.37    0.46
  WS02003059WS02003060 CONDUIT    297.44     0  04:45      0.82    0.19    0.65
  HS02004901HS02004770 CONDUIT     17.71     0  03:01      0.07    0.07    0.39
  HS02004876HS02004881 CONDUIT     71.90     0  03:01      0.92    0.76    0.11
  HS02004870HS02004876 CONDUIT     58.03     0  03:01      0.63    0.04    0.13
  HS02004842HS02004848 CONDUIT     11.42     0  03:01      0.05    0.01    0.30
  HS02004837HS02004842 CONDUIT     11.94     0  03:02      0.41    0.01    0.32
  HS02004830HS02004837 CONDUIT     41.69     0  03:01      0.56    0.04    0.11
  HS02004824HS02004830 CONDUIT     41.67     0  03:01      0.58    0.05    0.10
  HS02004817HS02004824 CONDUIT     81.58     0  03:01      0.25    0.04    0.47
  HS02004770HS02004777 CONDUIT     90.21     0  03:01      0.32    0.16    0.41
  HS02004799HS02004480 CONDUIT    226.97     0  03:01      0.78    0.29    0.42
  HS02004792HS02004799 CONDUIT    206.60     0  03:01      0.88    0.13    0.33
  HS02004788HS02004792 CONDUIT    118.94     0  03:01      1.01    0.08    0.17
  HS02004785HS02004788 CONDUIT     89.52     0  03:02      0.66    0.67    0.19
  HS02004777HS02004785 CONDUIT     89.64     0  03:01      0.38    0.11    0.33
  HS02004480HS02004478 CONDUIT    269.12     0  03:01      1.20    1.13    0.32
  HS02004479HS02004480 CONDUIT     44.17     0  03:02      0.23    0.04    0.40
  HS02004862HS02004870 CONDUIT     44.23     0  03:01      0.64    0.05    0.10
  HS02004848HS02004852 CONDUIT     20.44     0  03:01      0.44    0.02    0.07
  HS02004856HS02004862 CONDUIT     30.57     0  03:01      0.47    0.03    0.09
  HS02004852HS02004856 CONDUIT     20.26     0  03:01      0.24    0.02    0.12
  HS02004802HS02004478 CONDUIT    106.59     0  03:02      0.45    0.09    0.35
  HS02004478WS02006287 CONDUIT    375.27     0  03:01      1.68    0.11    0.25
  HS02004817HS02004807 CONDUIT     82.18     0  03:01      0.19    0.05    0.62
  HS02004807HS02004802 CONDUIT    106.49     0  03:01      0.38    0.20    0.40
  YS02001759YS02001757 CONDUIT    611.70     0  02:50      0.78    0.43    1.00
  YS02001762YS02001759 CONDUIT    310.98     0  02:50      0.40    0.36    1.00
  YS02001765YS02001762 CONDUIT    310.97     0  02:50      0.40    0.29    1.00
  YS02001770YS02001767 CONDUIT    310.44     0  02:50      0.40    1.23    1.00
  YS02001774YS02001770 CONDUIT    406.17     0  03:25      0.52    0.26    1.00
  YS02001779YS02001774 CONDUIT    406.61     0  03:25      0.52    0.20    1.00
  YS02001649YS02001757 CONDUIT    889.16     0  02:46      1.13    0.54    1.00
  YS02001767YS02001765 CONDUIT    310.92     0  02:50      0.40    0.39    1.00
  YS02006561YS02001783 CONDUIT    964.25     0  03:00      2.12    0.50    1.00
  YS02001783YS02001784 CONDUIT    964.26     0  03:00      1.92    1.33    1.00
  YS02001784YS02001785 CONDUIT    965.22     0  03:01      1.92    2.25    1.00
  YS02001788YS02001790 CONDUIT    965.38     0  03:00      2.32    0.71    1.00
  YS02001790YS02001791 CONDUIT    965.61     0  03:00      2.86    1.05    1.00
  YS02001791YS02001793 CONDUIT    965.61     0  03:00      5.72    0.41    1.00
  YS02001910YS02001907 CONDUIT    456.82     0  02:55      0.58    0.26    1.00
  YS02001786YS02001788 CONDUIT    965.34     0  03:00      2.23    1.86    1.00
  YS02001915YS02001910 CONDUIT    456.43     0  02:55      0.58    0.23    1.00
  YS02001918YS02001915 CONDUIT    220.21     0  02:55      0.44    0.12    1.00
  YS02001923YS02001920 CONDUIT    216.83     0  02:55      0.68    0.10    1.00
  YS02001926YS02001923 CONDUIT    233.52     0  02:55      0.79    0.33    0.90
  YS02001929YS02001926 CONDUIT    191.75     0  02:54      0.84    0.09    0.79
  YS02001920YS02001918 CONDUIT    219.50     0  02:55      0.67    0.21    1.00
  YS02001629YS02163301 CONDUIT    210.81     0  02:32      0.27    0.26    1.00
  YS02001619YS02001622 CONDUIT    257.46     0  03:01      0.61    0.38    1.00
  YS02001622YS02001625 CONDUIT    257.37     0  03:01      0.33    0.14    1.00
  YS02001625YS02001629 CONDUIT    214.36     0  02:29      0.28    0.10    1.00
  YS02163301YS02001633 CONDUIT    210.82     0  02:32      0.27    0.20    1.00
  YS02163601YS02164001 CONDUIT    417.70     0  02:47      0.53    0.37    1.00
  YS02164001YS02001641 CONDUIT    417.72     0  02:47      0.53    0.57    1.00
  YS02001641YS02001644 CONDUIT    417.93     0  02:47      0.53    1.35    1.00
  YS02001647YS02001649 CONDUIT    633.87     0  02:47      0.81    0.33    1.00
  YS02006553YS02006556 CONDUIT    667.34     0  03:17      0.85    0.57    1.00
  YS02006556YS02006558 CONDUIT    667.34     0  03:17      0.85    0.53    1.00
  YSB6556YSB1171       CONDUIT     24.82     0  03:03      0.09    0.03    0.67
  YS02001907YS02006553 CONDUIT    667.17     0  03:17      0.74    0.78    1.00
  YS02006558YS02006561 CONDUIT    964.35     0  03:01      3.41    2.13    1.00
  YS02001633YS02163601 CONDUIT    417.46     0  02:47      0.53    0.44    1.00
  YS02001644YS02001647 CONDUIT    633.87     0  02:47      0.81    0.37    1.00
  YS02001745YS02001748 CONDUIT    582.40     0  02:39      1.48    0.22    0.94
  YS02001748YS02001751 CONDUIT    343.56     0  02:30      1.05    0.17    1.00
  YS02001751YS02001754 CONDUIT    308.30     0  03:01      0.88    0.15    1.00
  YS02001754YS02001757 CONDUIT    308.60     0  03:01      0.39    0.12    1.00
  YS02001882YS02001884 CONDUIT     36.12     0  02:45      0.09    0.04    1.00
  YS02001884YS02001887 CONDUIT     67.03     0  02:43      0.09    0.09    1.00
  YS02001890YS02001895 CONDUIT    453.78     0  03:01      0.58    0.21    1.00
  YS02001895YS02001898 CONDUIT    453.92     0  03:01      0.58    0.79    1.00
  YS02001898YS02001901 CONDUIT    454.22     0  03:01      0.58    0.29    1.00
  YS02001901YS02001904 CONDUIT    453.85     0  03:01      0.58    0.70    1.00
  YS02001904YS02001907 CONDUIT    453.92     0  03:01      0.58    0.16    1.00
  YS02001887YS02001890 CONDUIT    453.43     0  03:01      0.58    0.78    1.00
  YS02001652YS02001649 CONDUIT    374.13     0  03:01      0.50    0.19    1.00
  YS02001655YS02001652 CONDUIT    373.87     0  03:01      0.93    0.18    1.00
  YS02001658YS02001655 CONDUIT    438.17     0  02:31      1.21    0.19    1.00
  YS02001661YS02001658 CONDUIT    648.85     0  02:35      1.56    0.25    1.00
  YS02001664YS02001661 CONDUIT    676.99     0  02:50      1.46    0.21    0.73
  YSB1154YSB6556       CONDUIT     24.91     0  03:01      0.18    0.04    0.56
  YSB1174YSB1171       CONDUIT     18.78     0  03:01      0.07    0.03    0.68
  YSB1171HS02004479    CONDUIT     42.82     0  03:02      0.54    0.03    0.53
  HS02004881HS02006253 CONDUIT     79.15     0  03:01      2.13    0.02    0.19
  YS02001793JiankangQianchi CONDUIT    965.57     0  03:00     15.25    0.08    1.00
  YS02001757CaochengTiaoxuchi CONDUIT   1677.85     0  02:48      2.18    0.74    1.00
  WSF200WS02003060     CONDUIT    639.53     0  03:08      1.80    0.14    0.36
  1                    CONDUIT    942.78     0  03:11      3.27    0.33    0.39
  2                    CONDUIT     53.29     0  03:04      4.05    0.13    0.24
  3                    CONDUIT    466.90     0  05:00      9.66    0.74    0.65
  4                    CONDUIT      0.00     0  00:00      0.00    0.00    0.00
  CC-Pump-1            PUMP         0.00     0  00:00              0.00
  CC-Pump-2            PUMP       200.00     0  03:00              1.00
  JK-Pump-1            PUMP       300.00     0  05:00              1.00
  JK-Pump-2            PUMP       300.00     0  00:00              1.00
  XR-Pump-1            PUMP        95.00     0  00:00              1.00
  XR-Pump-2            PUMP        95.00     0  00:00              1.00
  XR-Pump-3            PUMP         0.00     0  00:00              0.00
  XR-Pump-4            PUMP        95.00     0  00:20              1.00
  
  
  ***************************
  Flow Classification Summary
  ***************************
  
  -------------------------------------------------------------------------------------
                      Adjusted    ---------- Fraction of Time in Flow Class ---------- 
                       /Actual         Up    Down  Sub   Sup   Up    Down  Norm  Inlet 
  Conduit               Length    Dry  Dry   Dry   Crit  Crit  Crit  Crit  Ltd   Ctrl  
  -------------------------------------------------------------------------------------
  WS02003066WSF200        1.00   0.06  0.00  0.00  0.00  0.94  0.00  0.00  0.67  0.00
  WS02006287WS02006284    1.00   0.04  0.01  0.00  0.58  0.37  0.00  0.00  0.65  0.00
  WS02006284WS02006280    1.00   0.05  0.00  0.00  0.00  0.00  0.00  0.95  0.00  0.00
  WS02006280WS02006229    1.00   0.05  0.00  0.00  0.00  0.00  0.00  0.95  0.00  0.00
  WS02006229WS02006228    1.00   0.00  0.00  0.00  0.99  0.00  0.00  0.01  0.00  0.00
  WS02006256WS02006235    1.00   0.00  0.00  0.00  1.00  0.00  0.00  0.00  0.00  0.00
  WS02006253WS02006251    1.00   0.03  0.01  0.00  0.96  0.00  0.00  0.00  0.00  0.00
  WS02006252WS02006251    1.00   0.07  0.00  0.00  0.00  0.00  0.93  0.00  0.00  0.00
  WS02006251WS02006249    1.00   0.00  0.00  0.00  1.00  0.00  0.00  0.00  0.38  0.00
  WS02006249WS02006248    1.00   0.00  0.02  0.00  0.74  0.00  0.24  0.00  0.00  0.00
  WS02006248WS02006247    1.00   0.02  0.00  0.00  0.97  0.00  0.00  0.00  0.27  0.00
  WS02006247WS02006245    1.00   0.02  0.00  0.00  0.98  0.00  0.00  0.00  0.00  0.00
  WS02006245WS02006243    1.00   0.01  0.00  0.00  0.95  0.00  0.00  0.03  0.02  0.00
  WS02006243WS02006242    1.00   0.01  0.00  0.00  0.99  0.00  0.00  0.00  0.20  0.00
  WS02006242WS02006240    1.00   0.00  0.00  0.00  1.00  0.00  0.00  0.00  0.00  0.00
  WS02006240WS02006239    1.00   0.00  0.00  0.00  0.96  0.00  0.00  0.03  0.01  0.00
  WS02006239WS02006238    1.00   0.00  0.00  0.00  1.00  0.00  0.00  0.00  0.02  0.00
  WS02006238WS02006235    1.00   0.00  0.00  0.00  1.00  0.00  0.00  0.00  0.00  0.00
  WS02006235WS02006234    1.00   0.00  0.00  0.00  0.96  0.00  0.04  0.00  0.00  0.00
  WS02006234WS02006232    1.00   0.00  0.00  0.00  1.00  0.00  0.00  0.00  0.10  0.00
  WS02006232WS02006231    1.00   0.00  0.00  0.00  0.99  0.00  0.00  0.00  0.00  0.00
  WS02006231WS02006230    1.00   0.00  0.00  0.00  0.30  0.00  0.70  0.00  0.00  0.00
  WS02006230WS02006229    1.00   0.00  0.00  0.00  0.98  0.00  0.00  0.02  0.01  0.00
  WS02006228WS02006109    1.00   0.00  0.00  0.00  1.00  0.00  0.00  0.00  0.00  0.00
  WS02006116WS02004401    1.00   0.03  0.00  0.00  0.97  0.00  0.00  0.00  0.00  0.00
  WS02006115WS02006116    1.00   0.03  0.00  0.00  0.97  0.00  0.00  0.01  0.00  0.00
  WS02006113WS02006111    1.00   0.02  0.00  0.00  0.00  0.98  0.00  0.00  0.15  0.00
  WS02006112WS02006115    1.00   0.02  0.00  0.00  0.97  0.00  0.00  0.00  0.00  0.00
  WS02006111WS02006112    1.00   0.02  0.00  0.00  0.97  0.00  0.00  0.00  0.96  0.00
  WS02006110WS02006113    1.00   0.01  0.01  0.00  0.98  0.00  0.00  0.00  0.00  0.00
  WS02006109WS02006110    1.00   0.00  0.01  0.00  0.98  0.00  0.01  0.00  0.00  0.00
  WS02004411WS02004412    1.00   0.04  0.00  0.00  0.96  0.00  0.00  0.00  0.00  0.00
  WS02004401WS02004402    1.00   0.03  0.00  0.00  0.97  0.00  0.00  0.00  0.00  0.00
  WS02004413WS02003067    1.00   0.04  0.01  0.00  0.00  0.00  0.94  0.00  0.00  0.00
  WS02004412WS02004413    1.00   0.04  0.00  0.00  0.96  0.00  0.00  0.00  0.03  0.00
  WS02004410WS02004411    1.00   0.04  0.00  0.00  0.96  0.00  0.00  0.00  0.04  0.00
  WS02004409WS02004410    1.00   0.04  0.00  0.00  0.96  0.00  0.00  0.00  0.04  0.00
  WS02004407WS02004409    1.00   0.04  0.00  0.00  0.96  0.00  0.00  0.00  0.89  0.00
  WS02004406WS02004407    1.00   0.00  0.04  0.00  0.96  0.00  0.00  0.00  0.00  0.00
  WS02004405WS02004406    1.00   0.00  0.00  0.00  1.00  0.00  0.00  0.00  0.01  0.00
  WS02004404WS02004405    1.00   0.00  0.00  0.00  1.00  0.00  0.00  0.00  0.00  0.00
  WS02004403WS02004404    1.00   0.00  0.03  0.00  0.97  0.00  0.00  0.00  0.01  0.00
  WS02004402WS02004403    1.00   0.03  0.00  0.00  0.97  0.00  0.00  0.00  0.00  0.00
  WS02004139WS02001211    1.00   0.00  0.00  0.00  1.00  0.00  0.00  0.00  0.00  0.00
  WS02004138WS02004139    1.00   0.00  0.00  0.00  0.99  0.01  0.00  0.00  1.00  0.00
  WS02003067WS02003066    1.00   0.06  0.01  0.00  0.94  0.00  0.00  0.00  0.00  0.00
  WS02001213WS02003059    1.00   0.00  0.00  0.00  0.99  0.00  0.00  0.00  0.00  0.00
  WS02001212WS02001213    1.00   0.00  0.00  0.00  0.84  0.00  0.15  0.00  0.00  0.00
  WS02001211WS02001212    1.00   0.00  0.00  0.00  1.00  0.00  0.00  0.00  0.00  0.00
  WS02003072WS02003073    1.00   0.00  0.00  0.00  0.00  0.00  0.00  1.00  0.00  0.00
  WS02003069WS02003072    1.00   0.00  0.00  0.00  0.99  0.01  0.00  0.00  0.22  0.00
  WS02003060WS02003069    1.00   0.00  0.00  0.00  0.99  0.01  0.00  0.00  0.03  0.00
  WS02003059WS02003060    1.00   0.00  0.00  0.00  1.00  0.00  0.00  0.00  0.01  0.00
  HS02004901HS02004770    1.00   0.04  0.00  0.00  0.96  0.00  0.00  0.00  0.00  0.00
  HS02004876HS02004881    1.00   0.02  0.00  0.00  0.89  0.08  0.00  0.00  0.00  0.00
  HS02004870HS02004876    1.00   0.01  0.00  0.00  0.99  0.00  0.00  0.00  0.95  0.00
  HS02004842HS02004848    1.00   0.00  0.04  0.00  0.96  0.00  0.00  0.00  0.58  0.00
  HS02004837HS02004842    1.00   0.00  0.00  0.00  0.99  0.01  0.00  0.00  0.11  0.00
  HS02004830HS02004837    1.00   0.00  0.00  0.00  1.00  0.00  0.00  0.00  0.99  0.00
  HS02004824HS02004830    1.00   0.00  0.00  0.00  1.00  0.00  0.00  0.00  0.00  0.00
  HS02004817HS02004824    1.00   0.00  0.00  0.00  1.00  0.00  0.00  0.00  1.00  0.00
  HS02004770HS02004777    1.00   0.00  0.04  0.00  0.96  0.00  0.00  0.00  0.03  0.00
  HS02004799HS02004480    1.00   0.00  0.02  0.00  0.95  0.00  0.02  0.00  0.00  0.00
  HS02004792HS02004799    1.00   0.00  0.00  0.00  0.99  0.01  0.00  0.00  0.98  0.00
  HS02004788HS02004792    1.00   0.00  0.00  0.00  0.99  0.01  0.00  0.00  0.98  0.00
  HS02004785HS02004788    1.00   0.00  0.00  0.00  1.00  0.00  0.00  0.00  0.00  0.00
  HS02004777HS02004785    1.00   0.00  0.00  0.00  1.00  0.00  0.00  0.00  0.14  0.00
  HS02004480HS02004478    1.00   0.05  0.00  0.00  0.65  0.00  0.00  0.31  0.00  0.00
  HS02004479HS02004480    1.00   0.03  0.00  0.00  0.97  0.00  0.00  0.00  0.12  0.00
  HS02004862HS02004870    1.00   0.00  0.00  0.00  1.00  0.00  0.00  0.00  0.05  0.00
  HS02004848HS02004852    1.00   0.04  0.00  0.00  0.96  0.00  0.00  0.00  0.61  0.00
  HS02004856HS02004862    1.00   0.00  0.06  0.00  0.94  0.00  0.00  0.00  0.80  0.00
  HS02004852HS02004856    1.00   0.04  0.00  0.00  0.95  0.00  0.00  0.00  0.85  0.00
  HS02004802HS02004478    1.00   0.05  0.00  0.00  0.95  0.00  0.00  0.00  0.03  0.00
  HS02004478WS02006287    1.00   0.05  0.00  0.00  0.71  0.24  0.00  0.00  0.66  0.00
  HS02004817HS02004807    1.00   0.00  0.04  0.00  0.96  0.00  0.00  0.00  0.01  0.00
  HS02004807HS02004802    1.00   0.04  0.00  0.00  0.95  0.00  0.00  0.00  0.00  0.00
  YS02001759YS02001757    1.00   0.00  0.00  0.00  1.00  0.00  0.00  0.00  0.16  0.00
  YS02001762YS02001759    1.00   0.00  0.00  0.00  1.00  0.00  0.00  0.00  0.04  0.00
  YS02001765YS02001762    1.00   0.00  0.00  0.00  1.00  0.00  0.00  0.00  0.16  0.00
  YS02001770YS02001767    1.00   0.00  0.00  0.00  1.00  0.00  0.00  0.00  0.00  0.00
  YS02001774YS02001770    1.00   0.00  0.04  0.00  0.95  0.00  0.00  0.00  0.04  0.00
  YS02001779YS02001774    1.00   0.00  0.00  0.00  1.00  0.00  0.00  0.00  0.21  0.00
  YS02001649YS02001757    1.00   0.00  0.00  0.00  1.00  0.00  0.00  0.00  0.17  0.00
  YS02001767YS02001765    1.00   0.00  0.00  0.00  1.00  0.00  0.00  0.00  0.00  0.00
  YS02006561YS02001783    1.00   0.06  0.00  0.00  0.39  0.56  0.00  0.00  0.56  0.00
  YS02001783YS02001784    1.00   0.00  0.06  0.00  0.94  0.00  0.00  0.00  0.01  0.00
  YS02001784YS02001785    1.00   0.00  0.00  0.00  1.00  0.00  0.00  0.00  0.20  0.00
  YS02001788YS02001790    1.00   0.00  0.00  0.00  0.44  0.56  0.00  0.00  0.49  0.00
  YS02001790YS02001791    1.00   0.00  0.00  0.00  0.39  0.61  0.00  0.00  0.45  0.00
  YS02001791YS02001793    1.00   0.00  0.00  0.00  0.39  0.61  0.00  0.00  0.01  0.00
  YS02001910YS02001907    1.00   0.00  0.00  0.00  0.97  0.00  0.00  0.03  0.13  0.00
  YS02001786YS02001788    1.00   0.00  0.00  0.00  0.43  0.57  0.00  0.00  0.00  0.00
  YS02001915YS02001910    1.00   0.00  0.00  0.00  0.99  0.01  0.00  0.00  0.18  0.00
  YS02001918YS02001915    1.00   0.00  0.01  0.00  0.98  0.01  0.00  0.00  0.58  0.00
  YS02001923YS02001920    1.00   0.00  0.00  0.00  1.00  0.00  0.00  0.00  0.86  0.00
  YS02001926YS02001923    1.00   0.00  0.03  0.00  0.14  0.00  0.83  0.00  0.00  0.00
  YS02001929YS02001926    1.00   0.00  0.04  0.00  0.96  0.00  0.00  0.00  0.78  0.00
  YS02001920YS02001918    1.00   0.00  0.01  0.00  0.99  0.00  0.00  0.00  0.00  0.00
  YS02001629YS02163301    1.00   0.05  0.00  0.00  0.95  0.00  0.00  0.00  0.00  0.00
  YS02001619YS02001622    1.00   0.04  0.00  0.00  0.96  0.00  0.00  0.00  0.00  0.00
  YS02001622YS02001625    1.00   0.04  0.00  0.00  0.96  0.00  0.00  0.00  0.07  0.00
  YS02001625YS02001629    1.00   0.05  0.02  0.00  0.93  0.00  0.01  0.00  0.00  0.00
  YS02163301YS02001633    1.00   0.00  0.05  0.00  0.95  0.00  0.00  0.00  0.00  0.00
  YS02163601YS02164001    1.00   0.00  0.04  0.00  0.96  0.00  0.00  0.00  0.00  0.00
  YS02164001YS02001641    1.00   0.01  0.03  0.00  0.96  0.00  0.00  0.00  0.06  0.00
  YS02001641YS02001644    1.00   0.00  0.01  0.00  0.99  0.00  0.00  0.00  0.00  0.00
  YS02001647YS02001649    1.00   0.00  0.06  0.00  0.94  0.00  0.00  0.00  0.01  0.00
  YS02006553YS02006556    1.00   0.01  0.00  0.00  0.99  0.00  0.00  0.00  0.03  0.00
  YS02006556YS02006558    1.00   0.00  0.00  0.00  1.00  0.00  0.00  0.00  0.00  0.00
  YSB6556YSB1171          1.00   0.03  0.01  0.00  0.96  0.00  0.00  0.00  0.00  0.00
  YS02001907YS02006553    1.00   0.00  0.02  0.00  0.97  0.00  0.00  0.00  0.00  0.00
  YS02006558YS02006561    1.00   0.06  0.00  0.00  0.17  0.77  0.00  0.00  0.48  0.00
  YS02001633YS02163601    1.00   0.00  0.01  0.00  0.99  0.00  0.00  0.00  0.16  0.00
  YS02001644YS02001647    1.00   0.00  0.06  0.00  0.94  0.00  0.00  0.00  0.00  0.00
  YS02001745YS02001748    1.00   0.00  0.00  0.00  0.89  0.01  0.00  0.10  0.04  0.00
  YS02001748YS02001751    1.00   0.00  0.00  0.00  0.98  0.02  0.00  0.00  0.15  0.00
  YS02001751YS02001754    1.00   0.00  0.00  0.00  0.94  0.00  0.00  0.06  0.02  0.00
  YS02001754YS02001757    1.00   0.00  0.00  0.00  0.99  0.01  0.00  0.00  0.20  0.00
  YS02001882YS02001884    1.00   0.05  0.00  0.00  0.95  0.00  0.00  0.00  0.00  0.00
  YS02001884YS02001887    1.00   0.03  0.01  0.00  0.96  0.00  0.00  0.00  0.00  0.00
  YS02001890YS02001895    1.00   0.00  0.05  0.00  0.95  0.00  0.00  0.00  0.00  0.00
  YS02001895YS02001898    1.00   0.05  0.00  0.00  0.94  0.00  0.01  0.00  0.00  0.00
  YS02001898YS02001901    1.00   0.05  0.00  0.00  0.95  0.00  0.00  0.00  0.02  0.00
  YS02001901YS02001904    1.00   0.05  0.00  0.00  0.95  0.00  0.00  0.00  0.00  0.00
  YS02001904YS02001907    1.00   0.00  0.05  0.00  0.95  0.00  0.00  0.00  0.00  0.00
  YS02001887YS02001890    1.00   0.00  0.00  0.00  0.97  0.00  0.02  0.00  0.00  0.00
  YS02001652YS02001649    1.00   0.00  0.00  0.00  1.00  0.00  0.00  0.00  0.18  0.00
  YS02001655YS02001652    1.00   0.00  0.00  0.00  0.94  0.00  0.00  0.06  0.02  0.00
  YS02001658YS02001655    1.00   0.00  0.05  0.00  0.93  0.02  0.00  0.00  0.11  0.00
  YS02001661YS02001658    1.00   0.05  0.00  0.00  0.89  0.06  0.00  0.00  0.05  0.00
  YS02001664YS02001661    1.00   0.04  0.00  0.00  0.87  0.08  0.00  0.00  0.21  0.00
  YSB1154YSB6556          1.00   0.04  0.00  0.00  0.96  0.00  0.00  0.00  0.02  0.00
  YSB1174YSB1171          1.00   0.03  0.01  0.00  0.96  0.00  0.00  0.00  0.00  0.00
  YSB1171HS02004479       1.00   0.03  0.00  0.00  0.97  0.00  0.00  0.00  0.11  0.00
  HS02004881HS02006253    1.00   0.03  0.00  0.00  0.32  0.06  0.00  0.59  0.30  0.00
  YS02001793JiankangQianchi    1.00   0.00  0.00  0.00  0.49  0.51  0.00  0.00  0.09  0.00
  YS02001757CaochengTiaoxuchi    1.00   0.00  0.07  0.00  0.93  0.00  0.00  0.00  0.00  0.00
  WSF200WS02003060        1.00   0.00  0.06  0.00  0.76  0.18  0.00  0.00  0.43  0.00
  1                       1.00   0.00  0.00  0.00  0.00  1.00  0.00  0.00  0.35  0.00
  2                       1.00   0.96  0.00  0.00  0.00  0.04  0.00  0.00  0.01  0.00
  3                       1.00   0.06  0.00  0.00  0.00  0.94  0.00  0.00  0.22  0.00
  4                       1.00   1.00  0.00  0.00  0.00  0.00  0.00  0.00  0.00  0.00
  
  
  *************************
  Conduit Surcharge Summary
  *************************
  
  ----------------------------------------------------------------------------
                                                           Hours        Hours 
                         --------- Hours Full --------   Above Full   Capacity
  Conduit                Both Ends  Upstream  Dnstream   Normal Flow   Limited
  ----------------------------------------------------------------------------
  WS02006229WS02006228        1.24      1.32      1.24      2.95         1.24
  WS02006256WS02006235        6.09      6.09      6.91      5.59         0.01
  WS02006249WS02006248        0.01      0.01      0.01      1.61         0.01
  WS02006247WS02006245        0.01      0.01      0.01      2.53         0.01
  WS02006243WS02006242        0.01      0.01      0.21      0.01         0.01
  WS02006242WS02006240        0.16      0.16      0.24      0.01         0.01
  WS02006240WS02006239        0.18      0.18      0.21      0.01         0.01
  WS02006239WS02006238        0.27      0.27      0.41      0.01         0.01
  WS02006238WS02006235        0.40      0.40      0.47      0.01         0.01
  WS02006235WS02006234        0.24      0.24      0.36      6.11         0.01
  WS02006234WS02006232        0.34      0.34      0.71      0.01         0.01
  WS02006232WS02006231        0.18      0.18      0.71      0.01         0.01
  WS02006231WS02006230        0.13      0.13      0.20      6.12         0.01
  WS02006230WS02006229        1.51      2.19      1.51      6.22         1.51
  WS02006228WS02006109        1.26      1.37      1.26      4.30         1.26
  WS02006112WS02006115        0.01      0.01      0.82      0.01         0.01
  WS02006111WS02006112        0.01      0.01      2.96      0.01         0.01
  WS02006110WS02006113        0.01      0.01      1.35      0.01         0.01
  WS02006109WS02006110        0.72      0.72      1.37      0.73         0.01
  WS02004406WS02004407        0.01      0.01      0.10      0.01         0.01
  WS02004405WS02004406        0.10      0.13      0.10      0.78         0.10
  WS02004404WS02004405        0.13      0.16      0.13      6.00         0.13
  WS02004403WS02004404        0.01      0.01      0.16      0.01         0.01
  WS02003072WS02003073        0.01      0.01      0.01      5.53         0.01
  HS02004480HS02004478        0.01      0.01      0.01      0.25         0.01
  YS02001759YS02001757        5.66      5.66      5.74      0.01         0.01
  YS02001762YS02001759        5.64      5.64      5.66      0.01         0.01
  YS02001765YS02001762        5.61      5.61      5.64      0.01         0.01
  YS02001770YS02001767        5.58      5.59      5.59      0.23         0.67
  YS02001774YS02001770        5.57      5.57      5.63      0.01         0.01
  YS02001779YS02001774        5.46      5.46      5.63      0.01         0.01
  YS02001649YS02001757        5.64      5.64      5.74      0.01         0.01
  YS02001767YS02001765        5.59      5.59      5.61      0.01         0.01
  YS02006561YS02001783        0.65      0.65      1.19      0.01         0.01
  YS02001783YS02001784        1.19      1.19      1.24      1.15         0.99
  YS02001784YS02001785        1.20      1.24      1.20      2.08         1.20
  YS02001788YS02001790        1.19      1.19      2.24      0.01         0.01
  YS02001790YS02001791        2.24      2.24      2.27      0.48         0.48
  YS02001791YS02001793        2.27      2.27      2.36      0.01         0.01
  YS02001910YS02001907        0.97      0.97      1.49      0.01         0.01
  YS02001786YS02001788        1.19      1.20      1.19      1.68         1.19
  YS02001915YS02001910        0.77      0.77      0.97      0.01         0.01
  YS02001918YS02001915        0.52      0.52      0.77      0.01         0.01
  YS02001923YS02001920        0.29      0.29      0.55      0.01         0.01
  YS02001920YS02001918        0.52      0.52      0.55      0.01         0.01
  YS02001629YS02163301        5.57      5.57      5.58      0.01         0.01
  YS02001619YS02001622        5.26      5.26      5.29      0.01         0.01
  YS02001622YS02001625        5.29      5.29      5.55      0.01         0.01
  YS02001625YS02001629        5.27      5.27      5.55      0.01         0.01
  YS02163301YS02001633        5.58      5.58      5.61      0.01         0.01
  YS02163601YS02164001        5.61      5.61      5.64      0.01         0.01
  YS02164001YS02001641        5.61      5.61      5.62      0.01         0.02
  YS02001641YS02001644        5.62      5.62      5.62      1.22         1.28
  YS02001647YS02001649        5.53      5.53      5.64      0.01         0.01
  YS02006553YS02006556        1.19      1.19      1.56      0.01         0.01
  YS02006556YS02006558        1.37      1.37      1.64      0.01         0.01
  YS02001907YS02006553        2.09      2.09      2.30      0.01         0.01
  YS02006558YS02006561        0.88      1.16      0.88      1.94         0.88
  YS02001633YS02163601        5.61      5.61      5.64      0.01         0.01
  YS02001644YS02001647        5.53      5.53      5.62      0.01         0.01
  YS02001745YS02001748        0.01      0.01      5.10      0.01         0.01
  YS02001748YS02001751        5.15      5.15      5.28      0.01         0.01
  YS02001751YS02001754        5.28      5.28      5.48      0.01         0.01
  YS02001754YS02001757        5.53      5.53      5.74      0.01         0.01
  YS02001882YS02001884        0.78      0.78      0.81      0.01         0.01
  YS02001884YS02001887        0.87      0.87      0.90      0.01         0.01
  YS02001890YS02001895        0.75      0.75      0.99      0.01         0.01
  YS02001895YS02001898        0.73      0.73      0.75      0.01         0.01
  YS02001898YS02001901        0.76      0.76      0.87      0.01         0.01
  YS02001901YS02001904        0.84      0.84      0.87      0.01         0.01
  YS02001904YS02001907        0.84      0.84      1.58      0.01         0.01
  YS02001887YS02001890        0.93      0.93      0.96      0.01         0.01
  YS02001652YS02001649        5.54      5.54      5.64      0.01         0.01
  YS02001655YS02001652        5.29      5.29      5.52      0.01         0.01
  YS02001658YS02001655        5.13      5.13      5.29      0.01         0.01
  YS02001661YS02001658        0.24      0.24      5.13      0.01         0.01
  YS02001664YS02001661        0.01      0.01      1.21      0.01         0.01
  YS02001793JiankangQianchi        2.34      2.34      2.83      0.01         0.01
  YS02001757CaochengTiaoxuchi        4.99      4.99      5.74      0.01         0.01
  
  
  ***************
  Pumping Summary
  ***************
  
  ---------------------------------------------------------------------------------------------------------
                                                  Min       Avg       Max     Total     Power    % Time Off
                        Percent   Number of      Flow      Flow      Flow    Volume     Usage    Pump Curve
  Pump                 Utilized   Start-Ups       LPS       LPS       LPS  10^6 ltr     Kw-hr    Low   High
  ---------------------------------------------------------------------------------------------------------
  CC-Pump-1                0.00           0      0.00      0.00      0.00     0.000      0.00    0.0    0.0
  CC-Pump-2               54.53           9      0.00    127.70    200.00     1.933      1.48    0.0    4.3
  JK-Pump-1               25.53           5      0.00    161.09    300.00     0.947     15.30    0.0    0.0
  JK-Pump-2              100.00           1      0.00    233.31    300.00     5.284     59.80    0.0    0.0
  XR-Pump-1              100.00           1      0.00     95.00     95.00     2.679     23.05    0.0    0.0
  XR-Pump-2               99.99           4      0.00     84.67     95.00     2.451     21.54    0.0    0.0
  XR-Pump-3                0.00           0      0.00      0.00      0.00     0.000      0.00    0.0    0.0
  XR-Pump-4               89.35           5      0.00     74.77     95.00     1.881     16.07    0.0    0.0
  

  Analysis begun on:  Tue Jan  4 21:53:19 2022
  Analysis ended on:  Tue Jan  4 21:53:23 2022
  Total elapsed time: 00:00:04