
  EPA STORM WATER MANAGEMENT MODEL - VERSION 5.1 (Build 5.3.0.dev0)
  --------------------------------------------------------------

  WARNING 04: minimum elevation drop used for Conduit WS02004404WS02004405
  WARNING 03: negative offset ignored for Link YS02001904YS02001907
  
  *********************************************************
  NOTE: The summary statistics displayed in this report are
  based on results found at every computational time step,  
  not just on results from each reporting time step.
  *********************************************************
  
  ****************
  Analysis Options
  ****************
  Flow Units ............... LPS
  Process Models:
    Rainfall/Runoff ........ YES
    RDII ................... NO
    Snowmelt ............... NO
    Groundwater ............ NO
    Flow Routing ........... YES
    Ponding Allowed ........ NO
    Water Quality .......... NO
  Infiltration Method ...... HORTON
  Flow Routing Method ...... DYNWAVE
  Surcharge Method ......... EXTRAN
  Starting Date ............ 08/28/2015 08:00:00
  Ending Date .............. 08/28/2015 15:50:00
  Antecedent Dry Days ...... 8.0
  Report Time Step ......... 00:01:00
  Wet Time Step ............ 00:01:00
  Dry Time Step ............ 00:01:00
  Routing Time Step ........ 5.00 sec
  Variable Time Step ....... YES
  Maximum Trials ........... 8
  Number of Threads ........ 4
  Head Tolerance ........... 0.001500 m
  
  
  **************************        Volume         Depth
  Runoff Quantity Continuity     hectare-m            mm
  **************************     ---------       -------
  Total Precipitation ......         5.151        11.277
  Evaporation Loss .........         0.000         0.000
  Infiltration Loss ........         1.323         2.897
  Surface Runoff ...........         2.817         6.167
  Final Storage ............         1.011         2.215
  Continuity Error (%) .....        -0.015
  
  
  **************************        Volume        Volume
  Flow Routing Continuity        hectare-m      10^6 ltr
  **************************     ---------     ---------
  Dry Weather Inflow .......         0.616         6.165
  Wet Weather Inflow .......         2.816        28.156
  Groundwater Inflow .......         0.000         0.000
  RDII Inflow ..............         0.000         0.000
  External Inflow ..........         0.102         1.024
  External Outflow .........         1.878        18.785
  Flooding Loss ............         1.171        11.706
  Evaporation Loss .........         0.000         0.000
  Exfiltration Loss ........         0.000         0.000
  Initial Stored Volume ....         0.076         0.761
  Final Stored Volume ......         0.627         6.268
  Continuity Error (%) .....        -1.811
  
  
  *************************
  Highest Continuity Errors
  *************************
  Node HS02004842 (17.04%)
  Node YS02001884 (10.50%)
  Node JK-storage (-7.86%)
  Node YSB1171 (3.39%)
  Node HS02004817 (3.15%)
  
  
  ***************************
  Time-Step Critical Elements
  ***************************
  Link 3 (64.46%)
  Link WS02006252WS02006251 (25.26%)
  Link WS02006238WS02006235 (3.24%)
  Link YS02001793JiankangQianchi (1.95%)
  Link WS02006280WS02006229 (1.24%)
  
  
  ********************************
  Highest Flow Instability Indexes
  ********************************
  Link WS02006113WS02006111 (47)
  Link YS02163301YS02001633 (43)
  Link YS02163601YS02164001 (43)
  Link YS02001629YS02163301 (43)
  Link YS02001619YS02001622 (41)
  
  
  *************************
  Routing Time Step Summary
  *************************
  Minimum Time Step           :     0.50 sec
  Average Time Step           :     0.87 sec
  Maximum Time Step           :     5.00 sec
  Percent in Steady State     :    -0.00
  Average Iterations per Step :     4.53
  Percent Not Converging      :    20.15
  
  
  ***************************
  Subcatchment Runoff Summary
  ***************************
  
  ------------------------------------------------------------------------------------------------------------------------------
                            Total      Total      Total      Total     Imperv       Perv      Total       Total     Peak  Runoff
                           Precip      Runon       Evap      Infil     Runoff     Runoff     Runoff      Runoff   Runoff   Coeff
  Subcatchment                 mm         mm         mm         mm         mm         mm         mm    10^6 ltr      LPS
  ------------------------------------------------------------------------------------------------------------------------------
  sub0                      11.28       0.00       0.00       0.79       9.22       0.00       9.22        0.01     1.44   0.818
  sub1                      11.28       0.00       0.00       1.24       8.78       0.00       8.78        0.06    10.11   0.778
  sub2                      11.28       0.00       0.00       4.17       6.20       0.00       6.20        0.06     9.79   0.549
  sub3                      11.28       0.00       0.00       4.17       6.16       0.00       6.16        0.14    22.44   0.546
  sub4                      11.28       0.00       0.00       1.24       8.63       0.00       8.63        0.18    27.35   0.765
  sub5                      11.28       0.00       0.00       0.79       9.17       0.00       9.17        0.10    18.00   0.813
  sub7                      11.28       0.00       0.00       1.01       9.01       0.00       9.01        0.03     5.34   0.799
  sub8                      11.28       0.00       0.00       1.01       9.00       0.00       9.00        0.06    10.08   0.798
  sub9                      11.28       0.00       0.00       1.01       8.99       0.00       8.99        0.04     7.58   0.798
  sub10                     11.28       0.00       0.00       0.90       9.08       0.00       9.08        0.10    17.43   0.805
  sub11                     11.28       0.00       0.00       0.90       9.10       0.00       9.10        0.11    18.56   0.807
  sub12                     11.28       0.00       0.00       1.47       8.62       0.00       8.62        0.08    13.79   0.765
  sub14                     11.28       0.00       0.00       1.01       8.99       0.00       8.99        0.09    14.98   0.797
  sub15                     11.28       0.00       0.00       3.38       6.91       0.00       6.91        0.12    20.76   0.613
  sub16                     11.28       0.00       0.00       3.72       6.64       0.00       6.64        0.07    12.34   0.589
  sub17                     11.28       0.00       0.00       3.61       6.73       0.00       6.73        0.06    10.18   0.597
  sub22                     11.28       0.00       0.00       4.85       5.64       0.00       5.64        0.36    62.58   0.500
  sub23                     11.28       0.00       0.00       4.17       6.23       0.00       6.23        0.30    52.29   0.553
  sub60                     11.28       0.00       0.00       1.35       7.08       0.00       7.08        2.14   214.31   0.627
  sub61                     11.28       0.00       0.00       1.92       7.22       0.00       7.22        2.23   246.69   0.640
  sub62                     11.28       0.00       0.00       0.90       7.84       0.00       7.84        2.41   259.66   0.695
  sub63                     11.28       0.00       0.00       3.27       6.33       0.00       6.33        1.92   219.77   0.561
  sub64                     11.28       0.00       0.00       1.69       6.79       0.00       6.79        2.06   204.52   0.602
  sub65                     11.28       0.00       0.00       1.47       6.90       0.00       6.90        2.12   208.50   0.612
  sub66                     11.28       0.00       0.00       3.27       5.83       0.00       5.83        1.79   183.42   0.517
  sub67                     11.28       0.00       0.00       0.90       8.30       0.00       8.30        2.56   301.39   0.736
  sub68                     11.28       0.00       0.00       1.58       7.60       0.00       7.60        2.34   264.96   0.674
  sub69                     11.28       0.00       0.00       1.69       7.90       0.00       7.90        1.85   237.25   0.701
  sub70                     11.28       8.07       0.00       6.54      10.49       0.03      10.52        2.41   252.63   0.544
  sub71                     11.28       0.00       0.00       0.90       7.63       0.00       7.63        1.80   186.96   0.676
  sub72                     11.28       0.00       0.00       0.79       6.02       0.00       6.02        1.23   100.40   0.534
  sub73                     11.28      10.24       0.00       7.30      11.40       0.02      11.42        2.68   238.40   0.531
  sub74                     11.28       0.00       0.00       8.46       2.36       0.00       2.36        0.94   126.51   0.209
  
  
  ******************
  Node Depth Summary
  ******************
  
  ---------------------------------------------------------------------------------
                                 Average  Maximum  Maximum  Time of Max    Reported
                                   Depth    Depth      HGL   Occurrence   Max Depth
  Node                 Type       Meters   Meters   Meters  days hr:min      Meters
  ---------------------------------------------------------------------------------
  WS02001211           JUNCTION     0.67     0.72     5.56     0  02:37        0.72
  WS02001212           JUNCTION     0.40     0.44     5.51     0  02:36        0.44
  WS02001213           JUNCTION     0.62     0.70     5.46     0  02:35        0.70
  WS02003069           JUNCTION     0.44     0.54     5.13     0  02:34        0.54
  WS02003072           JUNCTION     0.50     0.60     4.98     0  02:35        0.60
  WS02003073           JUNCTION     0.30     0.37     4.43     0  02:35        0.37
  WS02003060           JUNCTION     0.39     0.48     5.41     0  02:34        0.48
  WS02003066           JUNCTION     0.23     0.30     5.86     0  02:00        0.30
  WS02003059           JUNCTION     0.68     0.76     5.45     0  02:35        0.76
  WS02003067           JUNCTION     0.56     0.71     6.03     0  02:00        0.71
  WS02004401           JUNCTION     0.66     0.87     6.87     0  01:57        0.87
  WS02004402           JUNCTION     0.69     0.90     6.86     0  01:57        0.90
  WS02004403           JUNCTION     0.71     0.91     6.84     0  01:56        0.91
  WS02004404           JUNCTION     0.79     0.98     6.83     0  01:57        0.98
  WS02004406           JUNCTION     0.79     0.97     6.80     0  01:57        0.97
  WS02004409           JUNCTION     0.48     0.68     6.45     0  01:59        0.68
  WS02004410           JUNCTION     0.50     0.70     6.42     0  01:59        0.70
  WS02004411           JUNCTION     0.51     0.71     6.39     0  02:00        0.71
  WS02004412           JUNCTION     0.53     0.71     6.35     0  02:00        0.71
  WS02004413           JUNCTION     0.69     0.87     6.34     0  02:00        0.87
  WS02004405           JUNCTION     0.78     0.97     6.82     0  01:57        0.97
  WS02006109           JUNCTION     0.74     1.00     7.61     0  01:54        0.99
  WS02006110           JUNCTION     0.73     0.94     7.52     0  01:54        0.94
  WS02006111           JUNCTION     0.21     0.29     7.00     0  01:54        0.29
  WS02006112           JUNCTION     0.82     1.12     7.01     0  01:56        1.08
  WS02006113           JUNCTION     0.33     0.46     7.36     0  01:54        0.46
  WS02006115           JUNCTION     0.55     0.78     6.92     0  01:56        0.78
  WS02006116           JUNCTION     0.63     0.85     6.89     0  01:56        0.85
  WS02006230           JUNCTION     0.69     1.03     7.78     0  01:53        1.03
  WS02006231           JUNCTION     0.45     0.69     7.81     0  01:53        0.69
  WS02006232           JUNCTION     0.58     0.80     7.84     0  01:53        0.80
  WS02006234           JUNCTION     0.49     0.72     7.88     0  01:53        0.72
  WS02006235           JUNCTION     0.51     0.74     7.91     0  01:53        0.74
  WS02006238           JUNCTION     0.54     0.77     7.91     0  01:53        0.77
  WS02006240           JUNCTION     0.41     0.65     7.95     0  01:53        0.65
  WS02006242           JUNCTION     0.45     0.70     7.97     0  01:52        0.70
  WS02006243           JUNCTION     0.32     0.56     7.98     0  01:53        0.56
  WS02006245           JUNCTION     0.29     0.52     8.00     0  01:52        0.52
  WS02006247           JUNCTION     0.30     0.52     8.02     0  01:52        0.52
  WS02006248           JUNCTION     0.25     0.45     8.03     0  03:03        0.45
  WS02006249           JUNCTION     0.29     0.47     8.07     0  03:03        0.47
  WS02006239           JUNCTION     0.48     0.72     7.93     0  01:53        0.72
  WS02006251           JUNCTION     0.27     0.45     8.12     0  01:50        0.45
  WS02006252           JUNCTION     0.23     0.35     8.59     0  01:42        0.35
  WS02006253           JUNCTION     0.30     0.48     8.12     0  01:50        0.48
  WS02006256           JUNCTION     1.08     1.20     8.13     0  04:40        1.20
  WS02004138           JUNCTION     0.16     0.17     7.42     0  00:00        0.17
  WS02004407           JUNCTION     0.22     0.30     6.62     0  01:58        0.30
  WS02006228           JUNCTION     0.73     1.04     7.69     0  01:54        1.04
  WS02006229           JUNCTION     0.71     1.04     7.73     0  01:53        1.04
  WS02006280           JUNCTION     0.07     0.16     8.44     0  02:09        0.16
  WS02006284           JUNCTION     0.37     0.51     8.91     0  02:09        0.51
  WS02006287           JUNCTION     0.10     0.24     9.20     0  02:09        0.24
  WSF200               JUNCTION     0.21     0.31     5.55     0  02:00        0.31
  HS02004901           JUNCTION     0.13     0.25    10.07     0  02:07        0.25
  HS02004881           JUNCTION     0.01     0.03     9.06     0  02:08        0.03
  HS02004876           JUNCTION     0.05     0.11     9.14     0  02:04        0.11
  HS02004870           JUNCTION     0.02     0.05     9.34     0  02:09        0.05
  HS02004862           JUNCTION     0.02     0.06     9.44     0  02:09        0.06
  HS02004856           JUNCTION     0.08     0.11     9.54     0  02:09        0.11
  HS02004852           JUNCTION     0.01     0.04     9.55     0  02:09        0.04
  HS02004848           JUNCTION     0.01     0.04     9.64     0  02:09        0.04
  HS02004842           JUNCTION     0.33     0.37     9.64     0  02:09        0.37
  HS02004837           JUNCTION     0.03     0.06     9.64     0  02:09        0.06
  HS02004830           JUNCTION     0.04     0.07     9.54     0  02:09        0.07
  HS02004824           JUNCTION     0.02     0.05     9.45     0  02:10        0.05
  HS02004817           JUNCTION     0.44     0.56     9.40     0  02:09        0.56
  HS02004807           JUNCTION     0.13     0.23     9.40     0  02:09        0.23
  HS02004802           JUNCTION     0.17     0.26     9.39     0  02:09        0.26
  HS02004799           JUNCTION     0.13     0.28     9.49     0  02:07        0.28
  HS02004792           JUNCTION     0.04     0.11     9.63     0  02:07        0.11
  HS02004788           JUNCTION     0.03     0.08     9.98     0  02:08        0.08
  HS02004785           JUNCTION     0.05     0.15    10.05     0  02:08        0.15
  HS02004777           JUNCTION     0.15     0.27    10.06     0  02:07        0.27
  HS02004770           JUNCTION     0.12     0.24    10.07     0  02:07        0.24
  HS02004480           JUNCTION     0.09     0.22     9.46     0  02:07        0.22
  HS02004479           JUNCTION     0.12     0.26     9.46     0  02:08        0.26
  HS02004478           JUNCTION     0.07     0.15     9.38     0  02:08        0.15
  YS02001745           JUNCTION     0.70     0.87     8.39     0  02:59        0.87
  YS02001748           JUNCTION     1.10     2.27     9.35     0  02:24        1.31
  YS02001751           JUNCTION     1.28     2.12     9.00     0  02:24        1.52
  YS02001754           JUNCTION     1.54     2.09     8.70     0  02:24        1.80
  YS02001762           JUNCTION     1.74     2.03     8.43     0  02:53        2.02
  YS02001765           JUNCTION     1.69     1.97     8.42     0  03:02        1.96
  YS02001767           JUNCTION     1.65     1.93     8.42     0  03:02        1.91
  YS02001770           JUNCTION     1.65     1.95     8.44     0  02:24        1.90
  YS02001774           JUNCTION     1.72     2.01     8.43     0  02:24        1.96
  YS02001779           JUNCTION     1.46     1.68     8.37     0  02:20        1.68
  YS02001882           JUNCTION     0.48     1.20     7.92     0  02:54        1.19
  YS02001884           JUNCTION     0.58     1.30     7.92     0  02:54        1.29
  YS02001759           JUNCTION     1.77     2.07     8.44     0  02:53        2.06
  YS02001887           JUNCTION     0.66     1.38     7.92     0  02:54        1.37
  YS02001890           JUNCTION     0.68     1.41     7.91     0  02:54        1.40
  YS02001898           JUNCTION     0.45     1.16     7.89     0  02:55        1.15
  YS02001901           JUNCTION     0.57     1.28     7.89     0  02:56        1.27
  YS02001904           JUNCTION     0.55     1.25     7.88     0  02:55        1.24
  YS02001907           JUNCTION     0.88     1.59     7.88     0  02:56        1.58
  YS02001910           JUNCTION     0.67     1.37     7.88     0  02:55        1.37
  YS02001915           JUNCTION     0.47     1.16     7.88     0  02:57        1.16
  YS02001918           JUNCTION     0.22     0.82     7.88     0  02:58        0.82
  YS02001619           JUNCTION     1.25     1.61     8.54     0  02:13        1.52
  YS02001629           JUNCTION     1.60     1.85     8.40     0  02:21        1.84
  YS02001641           JUNCTION     1.70     1.96     8.39     0  02:28        1.93
  YS02001644           JUNCTION     1.70     1.92     8.35     0  02:24        1.92
  YS02001652           JUNCTION     1.55     2.16     8.76     0  02:13        1.92
  YS02001655           JUNCTION     1.31     2.20     9.05     0  02:13        1.74
  YS02001920           JUNCTION     0.31     0.89     7.90     0  02:58        0.89
  YS02001923           JUNCTION     0.15     0.63     7.89     0  02:58        0.63
  YS02001926           JUNCTION     0.21     0.44     7.89     0  02:57        0.44
  YS02001929           JUNCTION     0.11     0.18     7.87     0  02:58        0.17
  YS02001658           JUNCTION     1.04     2.21     9.35     0  02:44        1.50
  YS02001661           JUNCTION     0.81     2.46     9.86     0  02:45        1.53
  YS02001664           JUNCTION     0.36     0.57     8.50     0  02:36        0.56
  YS02001622           JUNCTION     1.27     1.62     8.52     0  02:13        1.49
  YS02001633           JUNCTION     1.69     1.97     8.43     0  02:26        1.94
  YS02001649           JUNCTION     1.74     2.05     8.44     0  02:35        2.05
  YS02001757           JUNCTION     1.87     2.21     8.47     0  02:24        2.16
  YS02001895           JUNCTION     0.45     1.16     7.90     0  02:54        1.15
  YS02001625           JUNCTION     1.55     1.78     8.38     0  02:20        1.78
  YS02163301           JUNCTION     1.63     1.92     8.44     0  02:26        1.87
  YS02163601           JUNCTION     1.74     2.03     8.43     0  02:28        1.98
  YS02164001           JUNCTION     1.68     1.96     8.41     0  02:28        1.91
  YS02001647           JUNCTION     1.53     1.81     8.42     0  02:24        1.79
  YSB1154              JUNCTION     0.26     0.41     9.47     0  02:08        0.41
  YSB6556              JUNCTION     0.16     0.30     9.47     0  02:07        0.30
  YSB1174              JUNCTION     0.22     0.36     9.47     0  02:08        0.36
  YSB1171              JUNCTION     0.41     0.56     9.47     0  02:08        0.56
  YS02006553           JUNCTION     0.88     1.58     7.87     0  02:58        1.58
  YS02006561           JUNCTION     0.27     0.80     7.46     0  02:56        0.80
  YS02006556           JUNCTION     0.85     1.53     7.85     0  02:58        1.53
  YS02006558           JUNCTION     0.89     1.57     7.84     0  02:57        1.57
  YS02001783           JUNCTION     0.52     1.85     7.99     0  02:16        1.23
  YS02001784           JUNCTION     0.54     1.64     7.70     0  02:16        1.19
  YS02001786           JUNCTION     0.50     1.98     8.01     0  02:16        1.09
  YS02001788           JUNCTION     0.44     1.74     7.72     0  02:16        1.00
  YS02001790           JUNCTION     0.58     1.96     7.60     0  02:15        1.21
  YS02001791           JUNCTION     0.57     1.61     7.08     0  02:16        1.24
  YS02001793           JUNCTION     0.79     2.46     7.29     0  02:13        1.79
  WS02004139           JUNCTION     0.62     0.66     5.57     0  02:37        0.66
  WSC                  OUTFALL      0.30     0.37     1.04     0  02:36        0.37
  3                    OUTFALL      0.11     0.20     6.20     0  04:40        0.20
  4                    OUTFALL      0.00     0.00     7.00     0  00:00        0.00
  5                    OUTFALL      0.00     0.00     5.00     0  00:00        0.00
  JK-storage           STORAGE      2.83     5.80     6.60     0  02:16        5.80
  CC-storage           STORAGE      1.11     1.38     8.38     0  03:35        1.38
  XR-storage           STORAGE      7.05     7.72     5.72     0  02:29        7.72
  
  
  *******************
  Node Inflow Summary
  *******************
  
  -------------------------------------------------------------------------------------------------
                                  Maximum  Maximum                  Lateral       Total        Flow
                                  Lateral    Total  Time of Max      Inflow      Inflow     Balance
                                   Inflow   Inflow   Occurrence      Volume      Volume       Error
  Node                 Type           LPS      LPS  days hr:min    10^6 ltr    10^6 ltr     Percent
  -------------------------------------------------------------------------------------------------
  WS02001211           JUNCTION      7.35   293.55     0  02:44       0.207        7.39       0.393
  WS02001212           JUNCTION      0.00   294.60     0  02:43           0        7.36       0.219
  WS02001213           JUNCTION      0.00   295.55     0  02:44           0        7.34       0.257
  WS02003069           JUNCTION      0.32   832.24     0  02:34     0.00902        14.9       0.131
  WS02003072           JUNCTION      0.00   832.21     0  02:35           0        14.9       0.176
  WS02003073           JUNCTION      1.82   834.13     0  02:35      0.0514        14.9       0.187
  WS02003060           JUNCTION     16.53   831.89     0  02:34       0.466        14.9       0.125
  WS02003066           JUNCTION      0.00   562.51     0  02:00           0        7.13       0.039
  WS02003059           JUNCTION      0.00   297.18     0  02:44           0        7.33       0.415
  WS02003067           JUNCTION      0.00   562.40     0  02:00           0        7.14       0.090
  WS02004401           JUNCTION      0.00   567.73     0  01:56           0         7.3       0.205
  WS02004402           JUNCTION      0.00   566.78     0  01:56           0        7.28       0.200
  WS02004403           JUNCTION      0.00   566.41     0  01:56           0        7.27       0.188
  WS02004404           JUNCTION      0.16   566.04     0  01:56     0.00457        7.26       0.149
  WS02004406           JUNCTION      0.00   566.45     0  01:57           0        7.23       0.366
  WS02004409           JUNCTION      0.00   565.73     0  01:58           0         7.2       0.119
  WS02004410           JUNCTION      0.00   564.21     0  01:58           0        7.19       0.145
  WS02004411           JUNCTION      0.00   563.29     0  01:59           0        7.18       0.159
  WS02004412           JUNCTION      0.00   562.78     0  01:59           0        7.17       0.185
  WS02004413           JUNCTION      0.00   562.54     0  01:59           0        7.16       0.292
  WS02004405           JUNCTION      0.04   566.22     0  01:56     0.00107        7.25       0.223
  WS02006109           JUNCTION      1.23   560.02     0  01:54      0.0347        7.32       0.207
  WS02006110           JUNCTION      0.00   559.98     0  01:54           0        7.31       0.184
  WS02006111           JUNCTION      0.00   582.13     0  01:54           0        7.29       0.031
  WS02006112           JUNCTION     10.18   575.24     0  01:54      0.0577        7.34       0.301
  WS02006113           JUNCTION      0.00   560.86     0  01:54           0        7.29       0.069
  WS02006115           JUNCTION      0.00   592.33     0  01:54           0        7.32       0.161
  WS02006116           JUNCTION      0.00   570.68     0  01:54           0        7.31       0.162
  WS02006230           JUNCTION     10.28   340.21     0  03:12        0.29        5.57       0.200
  WS02006231           JUNCTION      0.00   328.41     0  03:13           0        5.28       0.040
  WS02006232           JUNCTION      0.00   328.31     0  03:11           0        5.29       0.201
  WS02006234           JUNCTION      0.00   327.30     0  03:11           0        5.29       0.041
  WS02006235           JUNCTION      0.00   326.76     0  03:11           0        5.33       0.137
  WS02006238           JUNCTION      0.00   235.19     0  03:08           0         2.7       0.132
  WS02006240           JUNCTION      0.00   233.04     0  03:06           0        2.69       0.124
  WS02006242           JUNCTION      0.00   232.07     0  03:04           0        2.68       0.140
  WS02006243           JUNCTION      0.00   239.84     0  01:47           0        2.66      -0.338
  WS02006245           JUNCTION      0.00   244.28     0  01:48           0        2.67       0.191
  WS02006247           JUNCTION      0.00   247.19     0  01:48           0        2.67      -0.011
  WS02006248           JUNCTION      0.00   249.38     0  01:49           0        2.66      -0.106
  WS02006249           JUNCTION      0.00   251.33     0  01:49           0        2.67       0.168
  WS02006239           JUNCTION      0.00   234.26     0  03:07           0        2.69       0.151
  WS02006251           JUNCTION      0.08   252.55     0  01:50     0.00217        2.68      -0.022
  WS02006252           JUNCTION      0.00   200.00     0  01:42           0        2.33       0.006
  WS02006253           JUNCTION      1.44    57.91     0  02:08     0.00747       0.342      -0.010
  WS02006256           JUNCTION      0.00   600.00     0  05:10           0        6.58       0.039
  WS02004138           JUNCTION      0.00   285.00     0  00:00           0        7.21       0.064
  WS02004407           JUNCTION      0.00   565.97     0  01:57           0        7.21       0.055
  WS02006228           JUNCTION      0.00   558.86     0  01:54           0         7.3       0.137
  WS02006229           JUNCTION      0.00   558.17     0  01:54           0        7.31       0.135
  WS02006280           JUNCTION      0.00   274.19     0  02:09           0        1.75       0.004
  WS02006284           JUNCTION      0.10   274.19     0  02:09      0.0027        1.75       0.059
  WS02006287           JUNCTION      0.00   274.08     0  02:09           0        1.75       0.041
  WSF200               JUNCTION      0.00   562.54     0  02:00           0        7.13       0.032
  HS02004901           JUNCTION     12.34    12.34     0  01:36      0.0695      0.0697       2.591
  HS02004881           JUNCTION      5.34    56.61     0  02:08      0.0303       0.326       0.071
  HS02004876           JUNCTION     10.11    51.23     0  02:08      0.0584       0.296       0.183
  HS02004870           JUNCTION     10.08    41.18     0  02:08      0.0575       0.238       0.045
  HS02004862           JUNCTION      9.99    31.21     0  02:08      0.0634        0.18       0.094
  HS02004856           JUNCTION      7.58    21.25     0  02:08      0.0432       0.118       1.231
  HS02004852           JUNCTION      0.00    13.78     0  02:09           0      0.0753       0.072
  HS02004848           JUNCTION     22.44    22.44     0  02:09       0.139       0.139       0.032
  HS02004842           JUNCTION      0.00     8.71     0  02:17           0      0.0763      20.533
  HS02004837           JUNCTION     23.78    32.32     0  02:08       0.279       0.343       0.238
  HS02004830           JUNCTION      0.15    32.46     0  02:09     0.00423       0.333       0.372
  HS02004824           JUNCTION     27.40    59.85     0  02:10       0.181       0.513       0.105
  HS02004817           JUNCTION      0.60    60.44     0  02:10      0.0169       0.529       3.252
  HS02004807           JUNCTION     18.56    78.63     0  02:09       0.106       0.618       0.705
  HS02004802           JUNCTION      0.00    78.69     0  02:10           0       0.615       0.648
  HS02004799           JUNCTION     14.98   164.66     0  02:07      0.0856       0.976       0.270
  HS02004792           JUNCTION     62.86   149.73     0  02:07       0.364       0.891       0.045
  HS02004788           JUNCTION     22.43    86.95     0  02:07       0.166       0.528       0.074
  HS02004785           JUNCTION      0.15    64.59     0  02:07     0.00423       0.363       0.135
  HS02004777           JUNCTION      0.03    64.48     0  02:07    0.000846       0.364       1.448
  HS02004770           JUNCTION     52.29    64.50     0  02:06       0.297       0.365       0.854
  HS02004480           JUNCTION      0.00   195.78     0  02:07           0        1.15       0.099
  HS02004479           JUNCTION      0.00    31.20     0  02:09           0       0.188       0.391
  HS02004478           JUNCTION      0.00   274.07     0  02:08           0        1.75       0.020
  YS02001745           JUNCTION    214.32   442.05     0  02:22        2.14        2.17       0.534
  YS02001748           JUNCTION      0.04   597.18     0  02:23     0.00127        2.16       1.040
  YS02001751           JUNCTION      0.01   328.66     0  02:12     0.00031        2.11       1.119
  YS02001754           JUNCTION      0.26   234.95     0  02:15     0.00733         2.1       1.183
  YS02001762           JUNCTION      0.00   256.72     0  02:29           0        1.58       1.340
  YS02001765           JUNCTION      0.00   255.02     0  02:29           0        1.58       1.554
  YS02001767           JUNCTION      0.54   254.24     0  02:39      0.0151        1.61       2.280
  YS02001770           JUNCTION    259.81   272.82     0  03:07        2.41        2.52       1.272
  YS02001774           JUNCTION      0.00   273.43     0  03:07           0       0.999       2.576
  YS02001779           JUNCTION      0.01   273.82     0  03:07    0.000141       0.969       1.605
  YS02001882           JUNCTION      0.00    20.06     0  02:18           0      0.0175      13.507
  YS02001884           JUNCTION      0.00    41.96     0  02:18           0      0.0544      11.738
  YS02001759           JUNCTION    246.73   496.33     0  02:40        2.23        3.68       0.622
  YS02001887           JUNCTION    301.84   315.17     0  02:19        2.57         2.6       0.313
  YS02001890           JUNCTION      0.00   306.06     0  02:42           0        2.56       0.347
  YS02001898           JUNCTION      0.00   306.77     0  02:42           0        2.54       0.107
  YS02001901           JUNCTION      0.00   306.01     0  02:53           0        2.54       0.259
  YS02001904           JUNCTION      0.00   306.23     0  02:53           0        2.54       0.235
  YS02001907           JUNCTION      0.00   589.24     0  03:02           0        5.63       0.419
  YS02001910           JUNCTION      0.00   323.08     0  03:06           0         3.1       0.364
  YS02001915           JUNCTION    186.98   321.65     0  03:06         1.8         3.1       0.180
  YS02001918           JUNCTION      0.00   156.15     0  03:06           0         1.3       0.134
  YS02001619           JUNCTION    183.42   183.42     0  02:55        1.79        1.79       0.678
  YS02001629           JUNCTION      0.00   209.29     0  02:12           0        1.66       1.712
  YS02001641           JUNCTION      0.00   369.00     0  02:29           0        3.68       0.570
  YS02001644           JUNCTION    204.56   977.71     0  03:01        2.06         8.5       0.307
  YS02001652           JUNCTION      0.00   287.78     0  02:17           0        1.87       1.247
  YS02001655           JUNCTION      0.15   410.22     0  02:14     0.00434        1.89       1.264
  YS02001920           JUNCTION      2.87   146.96     0  03:05      0.0809        1.31       0.212
  YS02001923           JUNCTION      0.04   113.13     0  03:02     0.00106        1.23       0.047
  YS02001926           JUNCTION      0.05   104.26     0  03:02     0.00147        1.23       0.254
  YS02001929           JUNCTION    100.40   100.40     0  03:01        1.23        1.23       0.039
  YS02001658           JUNCTION      0.00   630.69     0  02:18           0        1.94       1.183
  YS02001661           JUNCTION      0.00   619.83     0  02:37           0        2.66      -0.037
  YS02001664           JUNCTION    219.77   373.75     0  02:35        1.91        2.63       0.277
  YS02001622           JUNCTION      0.00   183.67     0  02:54           0        1.78       1.805
  YS02001633           JUNCTION    208.70   367.85     0  02:35        2.13        3.74       0.860
  YS02001649           JUNCTION      0.00   772.47     0  02:34           0        5.23       0.706
  YS02001757           JUNCTION      0.00  1436.34     0  02:34           0         8.2       1.135
  YS02001895           JUNCTION      0.00   306.25     0  02:42           0        2.55       0.188
  YS02001625           JUNCTION      0.00   209.49     0  02:12           0        1.74       2.267
  YS02163301           JUNCTION      0.00   200.47     0  02:19           0        1.64       1.472
  YS02163601           JUNCTION      0.11   368.11     0  02:35      0.0031         3.7       0.815
  YS02164001           JUNCTION      0.00   368.33     0  02:35           0        3.68       0.539
  YS02001647           JUNCTION      0.00   557.39     0  02:35           0        4.45       0.637
  YSB1154              JUNCTION     18.00    18.00     0  02:07       0.104       0.105       1.400
  YSB6556              JUNCTION      0.00    17.99     0  02:06           0       0.105       1.199
  YSB1174              JUNCTION     13.79    13.79     0  01:35      0.0753      0.0758       1.722
  YSB1171              JUNCTION      0.00    31.24     0  02:07           0       0.187       3.509
  YS02006553           JUNCTION      0.00   589.18     0  03:02           0        5.62       0.268
  YS02006561           JUNCTION      0.00   845.28     0  02:55           0        7.92       0.009
  YS02006556           JUNCTION      0.00   589.14     0  03:02           0        5.62       0.197
  YS02006558           JUNCTION    265.84   845.64     0  02:55        2.36        7.95       0.064
  YS02001783           JUNCTION      0.00   841.88     0  02:57           0        7.92       0.028
  YS02001784           JUNCTION      1.06   843.00     0  02:57      0.0299        7.95       0.043
  YS02001786           JUNCTION      0.06   842.98     0  02:57     0.00159        7.95       0.039
  YS02001788           JUNCTION      0.07   843.06     0  02:57       0.002        7.94       0.024
  YS02001790           JUNCTION      0.15   843.18     0  02:57     0.00437        7.95       0.029
  YS02001791           JUNCTION      0.00   843.28     0  02:57           0        7.94       0.014
  YS02001793           JUNCTION      0.00   843.19     0  02:57           0        7.94       0.002
  WS02004139           JUNCTION      0.32   290.40     0  00:00     0.00905        7.22       0.453
  WSC                  OUTFALL       0.00   834.21     0  02:36           0        14.9       0.000
  3                    OUTFALL       0.00   480.14     0  04:40           0        3.93       0.000
  4                    OUTFALL       0.00     0.00     0  00:00           0           0       0.000 ltr
  5                    OUTFALL       0.00     0.00     0  00:00           0           0       0.000 ltr
  JK-storage           STORAGE       0.00   955.74     0  02:12           0        8.09      -7.287
  CC-storage           STORAGE       0.00  1436.08     0  02:34           0        6.36       1.032
  XR-storage           STORAGE     549.18   549.18     0  02:55        9.26        9.86      -0.001
  
  
  **********************
  Node Surcharge Summary
  **********************
  
  Surcharging occurs when water rises above the top of the highest conduit.
  ---------------------------------------------------------------------
                                               Max. Height   Min. Depth
                                   Hours       Above Crown    Below Rim
  Node                 Type      Surcharged         Meters       Meters
  ---------------------------------------------------------------------
  WS02006109           JUNCTION        1.68          0.176        1.644
  WS02006110           JUNCTION        0.34          0.029        1.821
  WS02006112           JUNCTION        0.81          0.122        1.558
  WS02006232           JUNCTION        0.83          0.104        1.376
  WS02006234           JUNCTION        0.03          0.004        1.236
  WS02006235           JUNCTION        0.12          0.034        1.256
  WS02006238           JUNCTION        0.23          0.048        1.382
  WS02006228           JUNCTION        1.65          0.213        1.987
  YS02001748           JUNCTION        5.32          1.190        0.000
  YS02001751           JUNCTION        5.53          1.118        0.082
  YS02001754           JUNCTION        5.75          1.044        0.106
  YS02001762           JUNCTION        5.96          1.030        0.120
  YS02001765           JUNCTION        5.94          0.975        0.125
  YS02001767           JUNCTION        5.92          0.933        0.097
  YS02001770           JUNCTION        5.90          0.918        0.002
  YS02001774           JUNCTION        5.95          1.011        0.039
  YS02001779           JUNCTION        5.75          0.680        0.000
  YS02001882           JUNCTION        0.48          0.202        0.628
  YS02001884           JUNCTION        0.55          0.240        0.630
  YS02001759           JUNCTION        5.98          1.074        0.136
  YS02001887           JUNCTION        0.71          0.330        0.620
  YS02001890           JUNCTION        0.76          0.356        0.404
  YS02001898           JUNCTION        0.37          0.130        0.610
  YS02001901           JUNCTION        0.65          0.284        0.586
  YS02001904           JUNCTION        0.61          0.252        0.598
  YS02001907           JUNCTION        1.44          0.580        0.370
  YS02001910           JUNCTION        0.83          0.374        0.726
  YS02001915           JUNCTION        0.44          0.164        0.836
  YS02001619           JUNCTION        5.53          0.610        0.000
  YS02001629           JUNCTION        5.57          0.470        0.000
  YS02001641           JUNCTION        5.94          0.957        0.143
  YS02001644           JUNCTION        5.95          0.920        0.000
  YS02001652           JUNCTION        5.77          1.130        0.000
  YS02001655           JUNCTION        5.57          1.200        0.000
  YS02001658           JUNCTION        5.35          1.208        0.092
  YS02001661           JUNCTION        0.22          1.390        0.000
  YS02001622           JUNCTION        5.60          0.620        0.000
  YS02001633           JUNCTION        5.93          0.953        0.107
  YS02001649           JUNCTION        5.96          1.050        0.000
  YS02001757           JUNCTION        6.04          1.210        0.000
  YS02001895           JUNCTION        0.41          0.155        0.595
  YS02001625           JUNCTION        5.79          0.780        0.000
  YS02163301           JUNCTION        5.92          0.920        0.110
  YS02163601           JUNCTION        5.96          1.028        0.052
  YS02164001           JUNCTION        5.94          0.955        0.145
  YS02001647           JUNCTION        5.76          0.812        0.088
  YS02006553           JUNCTION        1.49          0.583        0.607
  YS02006561           JUNCTION        0.01          0.005        1.145
  YS02006556           JUNCTION        1.11          0.494        0.856
  YS02006558           JUNCTION        1.07          0.473        0.927
  YS02001783           JUNCTION        1.22          1.050        0.550
  YS02001784           JUNCTION        1.27          0.835        0.655
  YS02001786           JUNCTION        1.23          1.179        0.251
  YS02001788           JUNCTION        1.21          0.942        0.538
  YS02001790           JUNCTION        2.33          1.157        0.000
  YS02001791           JUNCTION        2.36          0.808        1.112
  YS02001793           JUNCTION        2.44          1.462        1.138
  
  
  *********************
  Node Flooding Summary
  *********************
  
  Flooding refers to all water that overflows a node, whether it ponds or not.
  --------------------------------------------------------------------------
                                                             Total   Maximum
                                 Maximum   Time of Max       Flood    Ponded
                        Hours       Rate    Occurrence      Volume     Depth
  Node                 Flooded       LPS   days hr:min    10^6 ltr    Meters
  --------------------------------------------------------------------------
  YS02001748              0.01    159.17      0  02:24       0.000     0.000
  YS02001779              2.71    273.81      0  03:07       0.949     0.000
  YS02001619              0.01     33.93      0  02:13       0.000     0.000
  YS02001629              0.01     33.71      0  02:21       0.001     0.000
  YS02001644              5.10    977.65      0  03:01       6.777     0.000
  YS02001652              0.01     67.87      0  02:14       0.000     0.000
  YS02001655              0.01    258.09      0  02:14       0.001     0.000
  YS02001661              0.01    116.06      0  02:45       0.000     0.000
  YS02001622              0.01     25.19      0  02:20       0.000     0.000
  YS02001649              0.07     41.08      0  02:40       0.004     0.000
  YS02001757              0.01      9.19      0  02:24       0.000     0.000
  YS02001625              0.63     36.80      0  02:55       0.050     0.000
  YS02001790              0.01     99.03      0  02:15       0.000     0.000
  JK-storage              2.07    542.07      0  03:00       2.156     0.000
  XR-storage              3.95    356.23      0  03:00       1.768     0.000
  
  
  **********************
  Storage Volume Summary
  **********************
  
  --------------------------------------------------------------------------------------------------
                         Average     Avg  Evap Exfil       Maximum     Max    Time of Max    Maximum
                          Volume    Pcnt  Pcnt  Pcnt        Volume    Pcnt     Occurrence    Outflow
  Storage Unit           1000 m3    Full  Loss  Loss       1000 m3    Full    days hr:min        LPS
  --------------------------------------------------------------------------------------------------
  JK-storage               0.142      49     0     0         0.291     100       0  02:16     600.00
  CC-storage               3.080      20     0     0         3.847      25       0  03:35     200.00
  XR-storage               0.847      91     0     0         0.926     100       0  02:29     285.00
  
  
  ***********************
  Outfall Loading Summary
  ***********************
  
  -----------------------------------------------------------
                         Flow       Avg       Max       Total
                         Freq      Flow      Flow      Volume
  Outfall Node           Pcnt       LPS       LPS    10^6 ltr
  -----------------------------------------------------------
  WSC                   99.99    585.23    834.21      14.856
  3                     93.95    197.30    480.14       3.929
  4                      0.00      0.00      0.00       0.000
  5                      0.00      0.00      0.00       0.000
  -----------------------------------------------------------
  System                48.49    782.53   1223.99      18.785
  
  
  ********************
  Link Flow Summary
  ********************
  
  -----------------------------------------------------------------------------
                                 Maximum  Time of Max   Maximum    Max/    Max/
                                  |Flow|   Occurrence   |Veloc|    Full    Full
  Link                 Type          LPS  days hr:min     m/sec    Flow   Depth
  -----------------------------------------------------------------------------
  WS02003066WSF200     CONDUIT    562.54     0  02:00      2.77    0.10    0.24
  WS02006287WS02006284 CONDUIT    274.09     0  02:09      1.78    0.13    0.25
  WS02006284WS02006280 CONDUIT    274.19     0  02:09      2.02    0.11    0.23
  WS02006280WS02006229 CONDUIT    274.19     0  02:09      3.26    0.06    0.16
  WS02006229WS02006228 CONDUIT    558.86     0  01:54      1.11    1.85    1.00
  WS02006256WS02006235 CONDUIT    166.25     0  00:01      2.58    1.76    1.00
  WS02006253WS02006251 CONDUIT     63.47     0  01:57      0.55    0.19    0.66
  WS02006252WS02006251 CONDUIT    200.85     0  01:42      1.97    0.74    0.76
  WS02006251WS02006249 CONDUIT    251.33     0  01:49      0.99    0.72    0.66
  WS02006249WS02006248 CONDUIT    249.38     0  01:49      1.08    1.37    0.64
  WS02006248WS02006247 CONDUIT    247.19     0  01:48      1.04    0.54    0.68
  WS02006247WS02006245 CONDUIT    244.28     0  01:48      1.01    1.94    0.73
  WS02006245WS02006243 CONDUIT    239.84     0  01:47      1.07    0.71    0.76
  WS02006243WS02006242 CONDUIT    232.07     0  03:04      0.86    0.50    0.88
  WS02006242WS02006240 CONDUIT    233.04     0  03:06      0.72    0.93    0.96
  WS02006240WS02006239 CONDUIT    234.26     0  03:07      0.69    0.74    0.95
  WS02006239WS02006238 CONDUIT    235.19     0  03:08      0.67    0.75    1.00
  WS02006238WS02006235 CONDUIT    235.63     0  03:08      1.25    0.53    1.00
  WS02006235WS02006234 CONDUIT    327.30     0  03:11      0.95    3.45    1.00
  WS02006234WS02006232 CONDUIT    328.31     0  03:11      1.13    0.66    1.00
  WS02006232WS02006231 CONDUIT    328.41     0  03:13      0.95    0.69    0.98
  WS02006231WS02006230 CONDUIT    329.93     0  03:12      1.30    5.00    0.96
  WS02006230WS02006229 CONDUIT    342.34     0  03:11      0.89    7.62    1.00
  WS02006228WS02006109 CONDUIT    558.79     0  01:54      1.11    2.44    1.00
  WS02006116WS02004401 CONDUIT    567.73     0  01:56      0.79    0.78    0.86
  WS02006115WS02006116 CONDUIT    570.68     0  01:54      0.87    0.73    0.79
  WS02006113WS02006111 CONDUIT    582.13     0  01:54      2.49    0.70    0.47
  WS02006112WS02006115 CONDUIT    592.33     0  01:54      0.81    0.35    0.88
  WS02006111WS02006112 CONDUIT    565.13     0  01:54      1.56    0.27    0.68
  WS02006110WS02006113 CONDUIT    560.86     0  01:54      1.32    0.51    0.79
  WS02006109WS02006110 CONDUIT    559.98     0  01:54      1.11    1.08    1.00
  WS02004411WS02004412 CONDUIT    562.78     0  01:59      0.95    0.80    0.71
  WS02004401WS02004402 CONDUIT    566.78     0  01:56      0.77    0.68    0.89
  WS02004413WS02003067 CONDUIT    562.40     0  02:00      1.14    0.24    0.60
  WS02004412WS02004413 CONDUIT    562.54     0  01:59      0.85    0.38    0.79
  WS02004410WS02004411 CONDUIT    563.29     0  01:59      0.96    0.77    0.70
  WS02004409WS02004410 CONDUIT    564.21     0  01:58      0.98    0.73    0.69
  WS02004407WS02004409 CONDUIT    565.73     0  01:58      1.48    0.20    0.49
  WS02004406WS02004407 CONDUIT    565.97     0  01:57      1.07    0.25    0.64
  WS02004405WS02004406 CONDUIT    566.45     0  01:57      0.73    1.12    0.97
  WS02004404WS02004405 CONDUIT    566.18     0  01:56      0.84    5.55    0.98
  WS02004403WS02004404 CONDUIT    565.88     0  01:56      0.74    0.41    0.95
  WS02004402WS02004403 CONDUIT    566.41     0  01:56      0.76    0.81    0.90
  WS02004139WS02001211 CONDUIT    286.21     0  02:44      0.81    0.36    0.53
  WS02004138WS02004139 CONDUIT    290.07     0  00:00      3.33    0.06    0.39
  WS02003067WS02003066 CONDUIT    562.51     0  02:00      1.24    0.18    0.42
  WS02001213WS02003059 CONDUIT    297.18     0  02:44      0.80    0.49    0.72
  WS02001212WS02001213 CONDUIT    295.55     0  02:44      1.19    0.46    0.41
  WS02001211WS02001212 CONDUIT    294.60     0  02:43      0.67    0.23    0.58
  WS02003072WS02003073 CONDUIT    832.31     0  02:35      1.65    1.80    0.46
  WS02003069WS02003072 CONDUIT    832.21     0  02:35      1.56    0.40    0.48
  WS02003060WS02003069 CONDUIT    831.92     0  02:34      1.81    0.33    0.43
  WS02003059WS02003060 CONDUIT    299.37     0  02:44      0.82    0.20    0.62
  HS02004901HS02004770 CONDUIT     12.22     0  02:07      0.05    0.05    0.35
  HS02004876HS02004881 CONDUIT     51.32     0  02:08      0.76    0.55    0.10
  HS02004870HS02004876 CONDUIT     41.17     0  02:09      0.52    0.03    0.11
  HS02004842HS02004848 CONDUIT      8.71     0  02:17      0.04    0.01    0.29
  HS02004837HS02004842 CONDUIT      8.85     0  02:14      0.41    0.01    0.30
  HS02004830HS02004837 CONDUIT     32.31     0  02:09      0.50    0.03    0.09
  HS02004824HS02004830 CONDUIT     32.45     0  02:09      0.53    0.04    0.09
  HS02004817HS02004824 CONDUIT     59.84     0  02:10      0.20    0.03    0.43
  HS02004770HS02004777 CONDUIT     64.45     0  02:07      0.26    0.12    0.36
  HS02004799HS02004480 CONDUIT    164.63     0  02:07      0.67    0.21    0.35
  HS02004792HS02004799 CONDUIT    149.69     0  02:07      0.76    0.09    0.28
  HS02004788HS02004792 CONDUIT     86.94     0  02:08      0.90    0.06    0.14
  HS02004785HS02004788 CONDUIT     64.57     0  02:08      0.57    0.49    0.16
  HS02004777HS02004785 CONDUIT     64.44     0  02:07      0.31    0.08    0.29
  HS02004480HS02004478 CONDUIT    195.75     0  02:08      1.06    0.82    0.26
  HS02004479HS02004480 CONDUIT     31.31     0  02:10      0.28    0.03    0.34
  HS02004862HS02004870 CONDUIT     31.19     0  02:09      0.56    0.03    0.08
  HS02004848HS02004852 CONDUIT     13.78     0  02:09      0.38    0.02    0.05
  HS02004856HS02004862 CONDUIT     21.24     0  02:09      0.41    0.02    0.07
  HS02004852HS02004856 CONDUIT     13.76     0  02:09      0.18    0.02    0.11
  HS02004802HS02004478 CONDUIT     78.88     0  02:11      0.38    0.07    0.29
  HS02004478WS02006287 CONDUIT    274.08     0  02:09      1.48    0.08    0.21
  HS02004817HS02004807 CONDUIT     60.62     0  02:11      0.15    0.04    0.56
  HS02004807HS02004802 CONDUIT     78.69     0  02:10      0.32    0.15    0.35
  YS02001759YS02001757 CONDUIT    497.12     0  02:31      0.63    0.35    1.00
  YS02001762YS02001759 CONDUIT    258.33     0  02:29      0.33    0.30    1.00
  YS02001765YS02001762 CONDUIT    256.72     0  02:29      0.33    0.24    1.00
  YS02001770YS02001767 CONDUIT    253.71     0  02:39      0.38    1.00    1.00
  YS02001774YS02001770 CONDUIT    273.43     0  03:07      0.35    0.17    1.00
  YS02001779YS02001774 CONDUIT    273.81     0  03:07      0.35    0.14    1.00
  YS02001649YS02001757 CONDUIT    773.07     0  02:34      0.98    0.47    1.00
  YS02001767YS02001765 CONDUIT    255.02     0  02:29      0.35    0.32    1.00
  YS02006561YS02001783 CONDUIT    841.88     0  02:57      2.11    0.44    1.00
  YS02001783YS02001784 CONDUIT    841.94     0  02:57      1.67    1.16    1.00
  YS02001784YS02001785 CONDUIT    842.93     0  02:57      1.73    1.96    1.00
  YS02001788YS02001790 CONDUIT    843.03     0  02:57      2.26    0.62    1.00
  YS02001790YS02001791 CONDUIT    843.28     0  02:57      2.74    0.92    1.00
  YS02001791YS02001793 CONDUIT    843.19     0  02:57      5.52    0.36    1.00
  YS02001910YS02001907 CONDUIT    323.07     0  03:06      0.49    0.18    1.00
  YS02001786YS02001788 CONDUIT    842.99     0  02:57      2.17    1.62    1.00
  YS02001915YS02001910 CONDUIT    323.08     0  03:06      0.56    0.16    1.00
  YS02001918YS02001915 CONDUIT    152.79     0  03:09      0.44    0.08    0.91
  YS02001923YS02001920 CONDUIT    144.09     0  03:05      0.66    0.06    0.75
  YS02001926YS02001923 CONDUIT    113.10     0  03:02      0.76    0.16    0.43
  YS02001929YS02001926 CONDUIT    104.21     0  03:02      0.81    0.05    0.31
  YS02001920YS02001918 CONDUIT    156.15     0  03:06      0.65    0.15    0.85
  YS02001629YS02163301 CONDUIT    200.47     0  02:19      0.26    0.25    1.00
  YS02001619YS02001622 CONDUIT    183.67     0  02:54      0.67    0.27    1.00
  YS02001622YS02001625 CONDUIT    209.49     0  02:12      0.32    0.11    1.00
  YS02001625YS02001629 CONDUIT    209.29     0  02:12      0.27    0.10    1.00
  YS02163301YS02001633 CONDUIT    200.57     0  02:19      0.26    0.19    1.00
  YS02163601YS02164001 CONDUIT    368.33     0  02:35      0.47    0.33    1.00
  YS02164001YS02001641 CONDUIT    369.00     0  02:29      0.47    0.50    1.00
  YS02001641YS02001644 CONDUIT    369.78     0  02:29      0.47    1.20    1.00
  YS02001647YS02001649 CONDUIT    557.89     0  02:34      0.71    0.29    1.00
  YS02006553YS02006556 CONDUIT    589.14     0  03:02      0.75    0.50    1.00
  YS02006556YS02006558 CONDUIT    589.42     0  03:02      0.75    0.47    1.00
  YSB6556YSB1171       CONDUIT     18.03     0  02:09      0.07    0.02    0.61
  YS02001907YS02006553 CONDUIT    589.18     0  03:02      0.65    0.69    1.00
  YS02006558YS02006561 CONDUIT    845.28     0  02:55      3.20    1.87    1.00
  YS02001633YS02163601 CONDUIT    368.00     0  02:35      0.47    0.39    1.00
  YS02001644YS02001647 CONDUIT    557.39     0  02:35      0.71    0.33    1.00
  YS02001745YS02001748 CONDUIT    597.14     0  02:23      1.53    0.23    0.94
  YS02001748YS02001751 CONDUIT    328.65     0  02:12      1.14    0.17    1.00
  YS02001751YS02001754 CONDUIT    234.69     0  02:15      0.97    0.11    1.00
  YS02001754YS02001757 CONDUIT    234.06     0  02:15      0.33    0.09    1.00
  YS02001882YS02001884 CONDUIT     20.87     0  02:19      0.12    0.02    1.00
  YS02001884YS02001887 CONDUIT     41.96     0  02:18      0.09    0.06    1.00
  YS02001890YS02001895 CONDUIT    306.25     0  02:42      0.46    0.14    1.00
  YS02001895YS02001898 CONDUIT    306.77     0  02:42      0.57    0.53    1.00
  YS02001898YS02001901 CONDUIT    306.01     0  02:53      0.49    0.20    1.00
  YS02001901YS02001904 CONDUIT    306.23     0  02:53      0.46    0.47    1.00
  YS02001904YS02001907 CONDUIT    306.53     0  02:53      0.39    0.11    1.00
  YS02001887YS02001890 CONDUIT    306.06     0  02:42      0.42    0.52    1.00
  YS02001652YS02001649 CONDUIT    288.51     0  02:17      0.58    0.14    1.00
  YS02001655YS02001652 CONDUIT    287.78     0  02:17      1.05    0.14    1.00
  YS02001658YS02001655 CONDUIT    410.06     0  02:14      1.31    0.17    1.00
  YS02001661YS02001658 CONDUIT    630.69     0  02:18      1.61    0.25    1.00
  YS02001664YS02001661 CONDUIT    619.83     0  02:37      1.52    0.19    0.71
  YSB1154YSB6556       CONDUIT     17.99     0  02:06      0.16    0.03    0.50
  YSB1174YSB1171       CONDUIT     13.76     0  01:36      0.06    0.02    0.62
  YSB1171HS02004479    CONDUIT     31.20     0  02:09      0.54    0.02    0.48
  HS02004881HS02006253 CONDUIT     56.61     0  02:08      1.92    0.01    0.12
  YS02001793JiankangQianchi CONDUIT    955.74     0  02:12     13.02    0.08    1.00
  YS02001757CaochengTiaoxuchi CONDUIT   1436.08     0  02:34      2.22    0.63    1.00
  WSF200WS02003060     CONDUIT    562.55     0  02:00      1.80    0.12    0.33
  1                    CONDUIT    834.21     0  02:36      3.17    0.29    0.37
  2                    CONDUIT      0.00     0  00:00      0.00    0.00    0.00
  3                    CONDUIT    480.14     0  04:40      9.72    0.76    0.66
  4                    CONDUIT      0.00     0  00:00      0.00    0.00    0.00
  CC-Pump-1            PUMP         0.00     0  00:00              0.00
  CC-Pump-2            PUMP       200.00     0  01:42              1.00
  JK-Pump-1            PUMP       300.00     0  05:10              1.00
  JK-Pump-2            PUMP       300.00     0  00:00              1.00
  XR-Pump-1            PUMP        95.00     0  00:00              1.00
  XR-Pump-2            PUMP        95.00     0  00:00              1.00
  XR-Pump-3            PUMP         0.00     0  00:00              0.00
  XR-Pump-4            PUMP        95.00     0  00:00              1.00
  
  
  ***************************
  Flow Classification Summary
  ***************************
  
  -------------------------------------------------------------------------------------
                      Adjusted    ---------- Fraction of Time in Flow Class ---------- 
                       /Actual         Up    Down  Sub   Sup   Up    Down  Norm  Inlet 
  Conduit               Length    Dry  Dry   Dry   Crit  Crit  Crit  Crit  Ltd   Ctrl  
  -------------------------------------------------------------------------------------
  WS02003066WSF200        1.00   0.06  0.00  0.00  0.00  0.94  0.00  0.00  0.64  0.00
  WS02006287WS02006284    1.00   0.04  0.01  0.00  0.56  0.39  0.00  0.00  0.68  0.00
  WS02006284WS02006280    1.00   0.05  0.00  0.00  0.00  0.00  0.00  0.95  0.00  0.00
  WS02006280WS02006229    1.00   0.05  0.00  0.00  0.00  0.00  0.00  0.95  0.00  0.00
  WS02006229WS02006228    1.00   0.00  0.00  0.00  0.99  0.00  0.00  0.01  0.00  0.00
  WS02006256WS02006235    1.00   0.00  0.00  0.00  1.00  0.00  0.00  0.00  0.00  0.00
  WS02006253WS02006251    1.00   0.03  0.01  0.00  0.95  0.00  0.00  0.00  0.00  0.00
  WS02006252WS02006251    1.00   0.07  0.00  0.00  0.00  0.00  0.93  0.00  0.00  0.00
  WS02006251WS02006249    1.00   0.00  0.00  0.00  1.00  0.00  0.00  0.00  0.39  0.00
  WS02006249WS02006248    1.00   0.00  0.02  0.00  0.74  0.00  0.24  0.00  0.00  0.00
  WS02006248WS02006247    1.00   0.02  0.00  0.00  0.98  0.00  0.00  0.00  0.28  0.00
  WS02006247WS02006245    1.00   0.02  0.00  0.00  0.98  0.00  0.00  0.00  0.00  0.00
  WS02006245WS02006243    1.00   0.01  0.00  0.00  0.95  0.00  0.00  0.03  0.07  0.00
  WS02006243WS02006242    1.00   0.01  0.00  0.00  0.99  0.00  0.00  0.00  0.17  0.00
  WS02006242WS02006240    1.00   0.00  0.00  0.00  0.99  0.00  0.00  0.00  0.00  0.00
  WS02006240WS02006239    1.00   0.00  0.00  0.00  0.97  0.00  0.00  0.03  0.01  0.00
  WS02006239WS02006238    1.00   0.00  0.00  0.00  1.00  0.00  0.00  0.00  0.01  0.00
  WS02006238WS02006235    1.00   0.00  0.00  0.00  1.00  0.00  0.00  0.00  0.00  0.00
  WS02006235WS02006234    1.00   0.00  0.00  0.00  0.97  0.00  0.03  0.00  0.00  0.00
  WS02006234WS02006232    1.00   0.00  0.00  0.00  1.00  0.00  0.00  0.00  0.08  0.00
  WS02006232WS02006231    1.00   0.00  0.00  0.00  0.99  0.00  0.00  0.00  0.00  0.00
  WS02006231WS02006230    1.00   0.00  0.00  0.00  0.42  0.00  0.57  0.00  0.00  0.00
  WS02006230WS02006229    1.00   0.00  0.00  0.00  0.98  0.00  0.00  0.02  0.00  0.00
  WS02006228WS02006109    1.00   0.00  0.00  0.00  1.00  0.00  0.00  0.00  0.00  0.00
  WS02006116WS02004401    1.00   0.03  0.00  0.00  0.97  0.00  0.00  0.00  0.00  0.00
  WS02006115WS02006116    1.00   0.03  0.00  0.00  0.97  0.00  0.00  0.01  0.00  0.00
  WS02006113WS02006111    1.00   0.02  0.00  0.00  0.00  0.98  0.00  0.00  0.15  0.00
  WS02006112WS02006115    1.00   0.02  0.00  0.00  0.97  0.00  0.00  0.00  0.00  0.00
  WS02006111WS02006112    1.00   0.02  0.00  0.00  0.97  0.00  0.00  0.00  0.98  0.00
  WS02006110WS02006113    1.00   0.01  0.01  0.00  0.98  0.00  0.00  0.00  0.00  0.00
  WS02006109WS02006110    1.00   0.00  0.01  0.00  0.98  0.00  0.01  0.00  0.00  0.00
  WS02004411WS02004412    1.00   0.04  0.00  0.00  0.96  0.00  0.00  0.00  0.00  0.00
  WS02004401WS02004402    1.00   0.03  0.00  0.00  0.97  0.00  0.00  0.00  0.00  0.00
  WS02004413WS02003067    1.00   0.04  0.02  0.00  0.00  0.00  0.94  0.00  0.00  0.00
  WS02004412WS02004413    1.00   0.04  0.00  0.00  0.96  0.00  0.00  0.00  0.03  0.00
  WS02004410WS02004411    1.00   0.04  0.00  0.00  0.96  0.00  0.00  0.00  0.04  0.00
  WS02004409WS02004410    1.00   0.04  0.00  0.00  0.96  0.00  0.00  0.00  0.03  0.00
  WS02004407WS02004409    1.00   0.04  0.00  0.00  0.96  0.00  0.00  0.00  0.89  0.00
  WS02004406WS02004407    1.00   0.00  0.04  0.00  0.96  0.00  0.00  0.00  0.00  0.00
  WS02004405WS02004406    1.00   0.00  0.00  0.00  1.00  0.00  0.00  0.00  0.01  0.00
  WS02004404WS02004405    1.00   0.00  0.00  0.00  1.00  0.00  0.00  0.00  0.00  0.00
  WS02004403WS02004404    1.00   0.00  0.03  0.00  0.97  0.00  0.00  0.00  0.01  0.00
  WS02004402WS02004403    1.00   0.03  0.00  0.00  0.97  0.00  0.00  0.00  0.00  0.00
  WS02004139WS02001211    1.00   0.00  0.00  0.00  1.00  0.00  0.00  0.00  0.00  0.00
  WS02004138WS02004139    1.00   0.00  0.00  0.00  0.99  0.01  0.00  0.00  1.00  0.00
  WS02003067WS02003066    1.00   0.06  0.01  0.00  0.94  0.00  0.00  0.00  0.00  0.00
  WS02001213WS02003059    1.00   0.00  0.00  0.00  0.99  0.00  0.00  0.00  0.00  0.00
  WS02001212WS02001213    1.00   0.00  0.00  0.00  0.85  0.00  0.14  0.00  0.00  0.00
  WS02001211WS02001212    1.00   0.00  0.00  0.00  1.00  0.00  0.00  0.00  0.00  0.00
  WS02003072WS02003073    1.00   0.00  0.00  0.00  0.00  0.00  0.00  1.00  0.00  0.00
  WS02003069WS02003072    1.00   0.00  0.00  0.00  0.99  0.01  0.00  0.00  0.21  0.00
  WS02003060WS02003069    1.00   0.00  0.00  0.00  0.98  0.02  0.00  0.00  0.08  0.00
  WS02003059WS02003060    1.00   0.00  0.00  0.00  1.00  0.00  0.00  0.00  0.01  0.00
  HS02004901HS02004770    1.00   0.04  0.00  0.00  0.96  0.00  0.00  0.00  0.00  0.00
  HS02004876HS02004881    1.00   0.02  0.00  0.00  0.98  0.00  0.00  0.00  0.00  0.00
  HS02004870HS02004876    1.00   0.01  0.00  0.00  0.99  0.00  0.00  0.00  0.95  0.00
  HS02004842HS02004848    1.00   0.00  0.04  0.00  0.96  0.00  0.00  0.00  0.58  0.00
  HS02004837HS02004842    1.00   0.00  0.00  0.00  0.99  0.01  0.00  0.00  0.11  0.00
  HS02004830HS02004837    1.00   0.00  0.00  0.00  1.00  0.00  0.00  0.00  0.99  0.00
  HS02004824HS02004830    1.00   0.00  0.00  0.00  1.00  0.00  0.00  0.00  0.00  0.00
  HS02004817HS02004824    1.00   0.00  0.00  0.00  1.00  0.00  0.00  0.00  1.00  0.00
  HS02004770HS02004777    1.00   0.00  0.04  0.00  0.96  0.00  0.00  0.00  0.03  0.00
  HS02004799HS02004480    1.00   0.00  0.03  0.00  0.95  0.00  0.02  0.00  0.00  0.00
  HS02004792HS02004799    1.00   0.00  0.00  0.00  0.99  0.01  0.00  0.00  0.98  0.00
  HS02004788HS02004792    1.00   0.00  0.00  0.00  0.99  0.01  0.00  0.00  0.98  0.00
  HS02004785HS02004788    1.00   0.00  0.00  0.00  1.00  0.00  0.00  0.00  0.00  0.00
  HS02004777HS02004785    1.00   0.00  0.00  0.00  1.00  0.00  0.00  0.00  0.12  0.00
  HS02004480HS02004478    1.00   0.04  0.00  0.00  0.62  0.00  0.00  0.33  0.00  0.00
  HS02004479HS02004480    1.00   0.03  0.00  0.00  0.97  0.00  0.00  0.00  0.12  0.00
  HS02004862HS02004870    1.00   0.00  0.00  0.00  1.00  0.00  0.00  0.00  0.04  0.00
  HS02004848HS02004852    1.00   0.04  0.00  0.00  0.96  0.00  0.00  0.00  0.76  0.00
  HS02004856HS02004862    1.00   0.00  0.05  0.00  0.95  0.00  0.00  0.00  0.83  0.00
  HS02004852HS02004856    1.00   0.04  0.00  0.00  0.95  0.00  0.00  0.00  0.86  0.00
  HS02004802HS02004478    1.00   0.04  0.00  0.00  0.95  0.00  0.00  0.00  0.03  0.00
  HS02004478WS02006287    1.00   0.05  0.00  0.00  0.69  0.25  0.00  0.00  0.65  0.00
  HS02004817HS02004807    1.00   0.00  0.04  0.00  0.96  0.00  0.00  0.00  0.01  0.00
  HS02004807HS02004802    1.00   0.04  0.00  0.00  0.95  0.00  0.00  0.00  0.00  0.00
  YS02001759YS02001757    1.00   0.00  0.00  0.00  1.00  0.00  0.00  0.00  0.16  0.00
  YS02001762YS02001759    1.00   0.00  0.00  0.00  1.00  0.00  0.00  0.00  0.03  0.00
  YS02001765YS02001762    1.00   0.00  0.00  0.00  1.00  0.00  0.00  0.00  0.14  0.00
  YS02001770YS02001767    1.00   0.00  0.00  0.00  1.00  0.00  0.00  0.00  0.00  0.00
  YS02001774YS02001770    1.00   0.00  0.04  0.00  0.95  0.00  0.00  0.00  0.03  0.00
  YS02001779YS02001774    1.00   0.00  0.00  0.00  1.00  0.00  0.00  0.00  0.18  0.00
  YS02001649YS02001757    1.00   0.00  0.00  0.00  1.00  0.00  0.00  0.00  0.16  0.00
  YS02001767YS02001765    1.00   0.00  0.00  0.00  1.00  0.00  0.00  0.00  0.00  0.00
  YS02006561YS02001783    1.00   0.05  0.00  0.00  0.40  0.55  0.00  0.00  0.58  0.00
  YS02001783YS02001784    1.00   0.00  0.05  0.00  0.95  0.00  0.00  0.00  0.00  0.00
  YS02001784YS02001785    1.00   0.00  0.00  0.00  1.00  0.00  0.00  0.00  0.17  0.00
  YS02001788YS02001790    1.00   0.00  0.00  0.00  0.47  0.53  0.00  0.00  0.51  0.00
  YS02001790YS02001791    1.00   0.00  0.00  0.00  0.43  0.57  0.00  0.00  0.48  0.00
  YS02001791YS02001793    1.00   0.00  0.00  0.00  0.43  0.57  0.00  0.00  0.01  0.00
  YS02001910YS02001907    1.00   0.00  0.00  0.00  0.97  0.00  0.00  0.02  0.12  0.00
  YS02001786YS02001788    1.00   0.00  0.00  0.00  0.46  0.54  0.00  0.00  0.00  0.00
  YS02001915YS02001910    1.00   0.00  0.00  0.00  0.99  0.01  0.00  0.00  0.16  0.00
  YS02001918YS02001915    1.00   0.00  0.01  0.00  0.98  0.01  0.00  0.00  0.59  0.00
  YS02001923YS02001920    1.00   0.00  0.00  0.00  1.00  0.00  0.00  0.00  0.87  0.00
  YS02001926YS02001923    1.00   0.00  0.03  0.00  0.11  0.00  0.86  0.00  0.00  0.00
  YS02001929YS02001926    1.00   0.00  0.04  0.00  0.96  0.00  0.00  0.00  0.85  0.00
  YS02001920YS02001918    1.00   0.00  0.01  0.00  0.99  0.00  0.00  0.00  0.00  0.00
  YS02001629YS02163301    1.00   0.05  0.00  0.00  0.95  0.00  0.00  0.00  0.00  0.00
  YS02001619YS02001622    1.00   0.04  0.00  0.00  0.96  0.00  0.00  0.00  0.00  0.00
  YS02001622YS02001625    1.00   0.04  0.00  0.00  0.96  0.00  0.00  0.00  0.04  0.00
  YS02001625YS02001629    1.00   0.04  0.01  0.00  0.93  0.00  0.01  0.00  0.00  0.00
  YS02163301YS02001633    1.00   0.00  0.05  0.00  0.95  0.00  0.00  0.00  0.00  0.00
  YS02163601YS02164001    1.00   0.00  0.04  0.00  0.96  0.00  0.00  0.00  0.00  0.00
  YS02164001YS02001641    1.00   0.01  0.03  0.00  0.96  0.00  0.00  0.00  0.06  0.00
  YS02001641YS02001644    1.00   0.00  0.01  0.00  0.99  0.00  0.00  0.00  0.00  0.00
  YS02001647YS02001649    1.00   0.00  0.05  0.00  0.95  0.00  0.00  0.00  0.01  0.00
  YS02006553YS02006556    1.00   0.01  0.00  0.00  0.99  0.00  0.00  0.00  0.03  0.00
  YS02006556YS02006558    1.00   0.00  0.00  0.00  1.00  0.00  0.00  0.00  0.00  0.00
  YSB6556YSB1171          1.00   0.03  0.01  0.00  0.96  0.00  0.00  0.00  0.00  0.00
  YS02001907YS02006553    1.00   0.00  0.02  0.00  0.97  0.00  0.00  0.00  0.00  0.00
  YS02006558YS02006561    1.00   0.05  0.00  0.00  0.17  0.78  0.00  0.00  0.51  0.00
  YS02001633YS02163601    1.00   0.00  0.01  0.00  0.99  0.00  0.00  0.00  0.15  0.00
  YS02001644YS02001647    1.00   0.00  0.05  0.00  0.95  0.00  0.00  0.00  0.00  0.00
  YS02001745YS02001748    1.00   0.00  0.00  0.00  0.90  0.01  0.00  0.09  0.04  0.00
  YS02001748YS02001751    1.00   0.00  0.00  0.00  0.98  0.02  0.00  0.00  0.14  0.00
  YS02001751YS02001754    1.00   0.00  0.00  0.00  0.94  0.00  0.00  0.06  0.02  0.00
  YS02001754YS02001757    1.00   0.00  0.00  0.00  0.99  0.01  0.00  0.00  0.18  0.00
  YS02001882YS02001884    1.00   0.05  0.00  0.00  0.95  0.00  0.00  0.00  0.00  0.00
  YS02001884YS02001887    1.00   0.03  0.01  0.00  0.96  0.00  0.00  0.00  0.00  0.00
  YS02001890YS02001895    1.00   0.00  0.05  0.00  0.95  0.00  0.00  0.00  0.00  0.00
  YS02001895YS02001898    1.00   0.05  0.00  0.00  0.94  0.00  0.01  0.00  0.00  0.00
  YS02001898YS02001901    1.00   0.05  0.00  0.00  0.95  0.00  0.00  0.00  0.01  0.00
  YS02001901YS02001904    1.00   0.05  0.00  0.00  0.95  0.00  0.00  0.00  0.00  0.00
  YS02001904YS02001907    1.00   0.00  0.05  0.00  0.95  0.00  0.00  0.00  0.00  0.00
  YS02001887YS02001890    1.00   0.00  0.00  0.00  0.97  0.00  0.02  0.00  0.00  0.00
  YS02001652YS02001649    1.00   0.00  0.00  0.00  1.00  0.00  0.00  0.00  0.16  0.00
  YS02001655YS02001652    1.00   0.00  0.00  0.00  0.94  0.00  0.00  0.06  0.02  0.00
  YS02001658YS02001655    1.00   0.00  0.05  0.00  0.93  0.02  0.00  0.00  0.04  0.00
  YS02001661YS02001658    1.00   0.05  0.00  0.00  0.90  0.05  0.00  0.00  0.03  0.00
  YS02001664YS02001661    1.00   0.04  0.00  0.00  0.87  0.08  0.00  0.00  0.18  0.00
  YSB1154YSB6556          1.00   0.04  0.00  0.00  0.96  0.00  0.00  0.00  0.02  0.00
  YSB1174YSB1171          1.00   0.03  0.01  0.00  0.96  0.00  0.00  0.00  0.00  0.00
  YSB1171HS02004479       1.00   0.03  0.00  0.00  0.97  0.00  0.00  0.00  0.10  0.00
  HS02004881HS02006253    1.00   0.03  0.00  0.00  0.47  0.05  0.00  0.45  0.39  0.00
  YS02001793JiankangQianchi    1.00   0.00  0.00  0.00  0.58  0.42  0.00  0.00  0.12  0.00
  YS02001757CaochengTiaoxuchi    1.00   0.00  0.06  0.00  0.93  0.01  0.00  0.00  0.00  0.00
  WSF200WS02003060        1.00   0.00  0.06  0.00  0.80  0.13  0.00  0.00  0.37  0.00
  1                       1.00   0.00  0.00  0.00  0.00  1.00  0.00  0.00  0.40  0.00
  2                       1.00   1.00  0.00  0.00  0.00  0.00  0.00  0.00  0.00  0.00
  3                       1.00   0.06  0.00  0.00  0.00  0.94  0.00  0.00  0.19  0.00
  4                       1.00   1.00  0.00  0.00  0.00  0.00  0.00  0.00  0.00  0.00
  
  
  *************************
  Conduit Surcharge Summary
  *************************
  
  ----------------------------------------------------------------------------
                                                           Hours        Hours 
                         --------- Hours Full --------   Above Full   Capacity
  Conduit                Both Ends  Upstream  Dnstream   Normal Flow   Limited
  ----------------------------------------------------------------------------
  WS02006229WS02006228        1.65      1.69      1.65      3.69         1.65
  WS02006256WS02006235        6.34      6.34      6.93      5.43         0.01
  WS02006249WS02006248        0.01      0.01      0.01      2.63         0.01
  WS02006247WS02006245        0.01      0.01      0.01      3.21         0.01
  WS02006239WS02006238        0.09      0.09      0.22      0.01         0.01
  WS02006238WS02006235        0.14      0.14      0.50      0.01         0.01
  WS02006235WS02006234        0.03      0.03      0.12      6.08         0.01
  WS02006234WS02006232        0.10      0.10      0.83      0.01         0.01
  WS02006232WS02006231        0.01      0.01      0.83      0.01         0.01
  WS02006231WS02006230        0.01      0.01      0.01      6.35         0.01
  WS02006230WS02006229        1.80      3.18      1.80      6.44         1.80
  WS02006228WS02006109        1.68      1.75      1.68      4.34         1.68
  WS02006112WS02006115        0.01      0.01      0.81      0.01         0.01
  WS02006111WS02006112        0.01      0.01      3.74      0.01         0.01
  WS02006110WS02006113        0.01      0.01      1.72      0.01         0.01
  WS02006109WS02006110        0.34      0.34      1.75      0.34         0.01
  WS02004405WS02004406        0.01      0.01      0.01      0.49         0.01
  WS02004404WS02004405        0.01      0.01      0.01      6.25         0.01
  WS02003072WS02003073        0.01      0.01      0.01      5.59         0.01
  YS02001759YS02001757        5.98      5.98      6.04      0.01         0.01
  YS02001762YS02001759        5.96      5.96      5.98      0.01         0.01
  YS02001765YS02001762        5.94      5.94      5.96      0.01         0.01
  YS02001770YS02001767        5.92      5.92      5.92      0.01         0.71
  YS02001774YS02001770        5.90      5.90      5.95      0.01         0.01
  YS02001779YS02001774        5.75      5.75      5.95      0.01         0.01
  YS02001649YS02001757        5.96      5.96      6.04      0.01         0.01
  YS02001767YS02001765        5.92      5.92      5.94      0.01         0.01
  YS02006561YS02001783        0.01      0.01      1.22      0.01         0.01
  YS02001783YS02001784        1.22      1.22      1.27      0.88         0.82
  YS02001784YS02001785        1.23      1.27      1.23      2.02         1.22
  YS02001788YS02001790        1.21      1.21      2.33      0.01         0.01
  YS02001790YS02001791        2.33      2.33      2.36      0.01         0.01
  YS02001791YS02001793        2.36      2.36      2.46      0.01         0.01
  YS02001910YS02001907        0.83      0.83      1.44      0.01         0.01
  YS02001786YS02001788        1.21      1.23      1.21      1.68         1.21
  YS02001915YS02001910        0.44      0.44      0.83      0.01         0.01
  YS02001918YS02001915        0.01      0.01      0.44      0.01         0.01
  YS02001629YS02163301        5.89      5.89      5.92      0.01         0.01
  YS02001619YS02001622        5.53      5.53      5.60      0.01         0.02
  YS02001622YS02001625        5.60      5.60      5.79      0.01         0.01
  YS02001625YS02001629        5.57      5.57      5.79      0.01         0.01
  YS02163301YS02001633        5.92      5.92      5.94      0.01         0.01
  YS02163601YS02164001        5.94      5.94      5.96      0.01         0.01
  YS02164001YS02001641        5.94      5.94      5.94      0.01         0.03
  YS02001641YS02001644        5.94      5.94      5.95      1.03         1.19
  YS02001647YS02001649        5.76      5.76      5.96      0.01         0.01
  YS02006553YS02006556        1.11      1.11      1.49      0.01         0.01
  YS02006556YS02006558        1.28      1.28      1.57      0.01         0.01
  YS02001907YS02006553        2.04      2.04      2.24      0.01         0.01
  YS02006558YS02006561        0.65      1.07      0.65      1.89         0.65
  YS02001633YS02163601        5.93      5.93      5.96      0.01         0.01
  YS02001644YS02001647        5.76      5.76      5.95      0.01         0.01
  YS02001745YS02001748        0.01      0.01      5.32      0.01         0.01
  YS02001748YS02001751        5.39      5.39      5.53      0.01         0.01
  YS02001751YS02001754        5.53      5.53      5.75      0.01         0.01
  YS02001754YS02001757        5.77      5.77      6.04      0.01         0.01
  YS02001882YS02001884        0.48      0.48      0.55      0.01         0.01
  YS02001884YS02001887        0.66      0.66      0.71      0.01         0.01
  YS02001890YS02001895        0.41      0.41      0.85      0.01         0.01
  YS02001895YS02001898        0.37      0.37      0.41      0.01         0.01
  YS02001898YS02001901        0.42      0.42      0.65      0.01         0.01
  YS02001901YS02001904        0.61      0.61      0.65      0.01         0.01
  YS02001904YS02001907        0.61      0.61      1.52      0.01         0.01
  YS02001887YS02001890        0.76      0.76      0.80      0.01         0.01
  YS02001652YS02001649        5.77      5.77      5.96      0.01         0.01
  YS02001655YS02001652        5.57      5.57      5.77      0.01         0.01
  YS02001658YS02001655        5.35      5.35      5.57      0.01         0.01
  YS02001661YS02001658        0.21      0.21      5.35      0.01         0.01
  YS02001664YS02001661        0.01      0.01      1.14      0.01         0.01
  YS02001793JiankangQianchi        2.44      2.44      3.26      0.01         0.01
  YS02001757CaochengTiaoxuchi        5.25      5.25      6.04      0.01         0.01
  
  
  ***************
  Pumping Summary
  ***************
  
  ---------------------------------------------------------------------------------------------------------
                                                  Min       Avg       Max     Total     Power    % Time Off
                        Percent   Number of      Flow      Flow      Flow    Volume     Usage    Pump Curve
  Pump                 Utilized   Start-Ups       LPS       LPS       LPS  10^6 ltr     Kw-hr    Low   High
  ---------------------------------------------------------------------------------------------------------
  CC-Pump-1                0.00           0      0.00      0.00      0.00     0.000      0.00    0.0    0.0
  CC-Pump-2               53.52           6      0.00    156.90    200.00     2.331      2.31    0.0    8.6
  JK-Pump-1               38.30           8      0.00    136.50    300.00     1.269     16.64    0.0    0.0
  JK-Pump-2              100.00           1      0.00    235.04    300.00     5.306     55.64    0.0    0.0
  XR-Pump-1              100.00           2      0.00     92.67     95.00     2.622     21.04    0.0    0.0
  XR-Pump-2               97.88           2      0.00     91.26     95.00     2.480     18.96    0.0    0.0
  XR-Pump-3                0.00           0      0.00      0.00      0.00     0.000      0.00    0.0    0.0
  XR-Pump-4               97.87           3      0.00     76.05     95.00     2.109     16.62    0.0    0.0
  

  Analysis begun on:  Tue Jan  4 22:05:03 2022
  Analysis ended on:  Tue Jan  4 22:05:06 2022
  Total elapsed time: 00:00:03