
  EPA STORM WATER MANAGEMENT MODEL - VERSION 5.1 (Build 5.3.0.dev0)
  --------------------------------------------------------------

  WARNING 04: minimum elevation drop used for Conduit WS02004404WS02004405
  WARNING 03: negative offset ignored for Link YS02001904YS02001907
  
  *********************************************************
  NOTE: The summary statistics displayed in this report are
  based on results found at every computational time step,  
  not just on results from each reporting time step.
  *********************************************************
  
  ****************
  Analysis Options
  ****************
  Flow Units ............... LPS
  Process Models:
    Rainfall/Runoff ........ YES
    RDII ................... NO
    Snowmelt ............... NO
    Groundwater ............ NO
    Flow Routing ........... YES
    Ponding Allowed ........ NO
    Water Quality .......... NO
  Infiltration Method ...... HORTON
  Flow Routing Method ...... DYNWAVE
  Surcharge Method ......... EXTRAN
  Starting Date ............ 08/28/2015 08:00:00
  Ending Date .............. 08/28/2015 15:50:00
  Antecedent Dry Days ...... 8.0
  Report Time Step ......... 00:01:00
  Wet Time Step ............ 00:01:00
  Dry Time Step ............ 00:01:00
  Routing Time Step ........ 5.00 sec
  Variable Time Step ....... YES
  Maximum Trials ........... 8
  Number of Threads ........ 4
  Head Tolerance ........... 0.001500 m
  
  
  **************************        Volume         Depth
  Runoff Quantity Continuity     hectare-m            mm
  **************************     ---------       -------
  Total Precipitation ......         4.854        10.627
  Evaporation Loss .........         0.000         0.000
  Infiltration Loss ........         1.246         2.727
  Surface Runoff ...........         2.607         5.707
  Final Storage ............         1.002         2.194
  Continuity Error (%) .....        -0.015
  
  
  **************************        Volume        Volume
  Flow Routing Continuity        hectare-m      10^6 ltr
  **************************     ---------     ---------
  Dry Weather Inflow .......         0.616         6.165
  Wet Weather Inflow .......         2.606        26.059
  Groundwater Inflow .......         0.000         0.000
  RDII Inflow ..............         0.000         0.000
  External Inflow ..........         0.102         1.024
  External Outflow .........         1.793        17.927
  Flooding Loss ............         1.080        10.803
  Evaporation Loss .........         0.000         0.000
  Exfiltration Loss ........         0.000         0.000
  Initial Stored Volume ....         0.076         0.761
  Final Stored Volume ......         0.620         6.201
  Continuity Error (%) .....        -2.715
  
  
  *************************
  Highest Continuity Errors
  *************************
  Node HS02004842 (17.68%)
  Node JK-storage (-11.87%)
  Node YS02001884 (11.12%)
  Node YSB1171 (3.62%)
  Node HS02004817 (3.28%)
  
  
  ***************************
  Time-Step Critical Elements
  ***************************
  Link 3 (82.02%)
  Link WS02006252WS02006251 (10.52%)
  Link YS02001793JiankangQianchi (1.59%)
  Link YS02006556YS02006558 (1.03%)
  Link WS02006280WS02006229 (1.02%)
  
  
  ********************************
  Highest Flow Instability Indexes
  ********************************
  Link WS02006113WS02006111 (54)
  Link YS02163301YS02001633 (42)
  Link YS02001629YS02163301 (41)
  Link YS02163601YS02164001 (40)
  Link YS02001619YS02001622 (40)
  
  
  *************************
  Routing Time Step Summary
  *************************
  Minimum Time Step           :     0.50 sec
  Average Time Step           :     0.89 sec
  Maximum Time Step           :     5.00 sec
  Percent in Steady State     :    -0.00
  Average Iterations per Step :     4.54
  Percent Not Converging      :    20.78
  
  
  ***************************
  Subcatchment Runoff Summary
  ***************************
  
  ------------------------------------------------------------------------------------------------------------------------------
                            Total      Total      Total      Total     Imperv       Perv      Total       Total     Peak  Runoff
                           Precip      Runon       Evap      Infil     Runoff     Runoff     Runoff      Runoff   Runoff   Coeff
  Subcatchment                 mm         mm         mm         mm         mm         mm         mm    10^6 ltr      LPS
  ------------------------------------------------------------------------------------------------------------------------------
  sub0                      10.63       0.00       0.00       0.74       8.62       0.00       8.62        0.01     1.33   0.811
  sub1                      10.63       0.00       0.00       1.17       8.20       0.00       8.20        0.05     9.09   0.772
  sub2                      10.63       0.00       0.00       3.93       5.79       0.00       5.79        0.05     8.42   0.544
  sub3                      10.63       0.00       0.00       3.93       5.75       0.00       5.75        0.13    19.27   0.541
  sub4                      10.63       0.00       0.00       1.17       8.05       0.00       8.05        0.17    23.93   0.757
  sub5                      10.63       0.00       0.00       0.74       8.57       0.00       8.57        0.10    16.17   0.806
  sub7                      10.63       0.00       0.00       0.96       8.41       0.00       8.41        0.03     5.13   0.792
  sub8                      10.63       0.00       0.00       0.96       8.41       0.00       8.41        0.05     9.46   0.791
  sub9                      10.63       0.00       0.00       0.96       8.40       0.00       8.40        0.04     7.08   0.791
  sub10                     10.63       0.00       0.00       0.85       8.48       0.00       8.48        0.09    15.87   0.798
  sub11                     10.63       0.00       0.00       0.85       8.50       0.00       8.50        0.10    17.56   0.800
  sub12                     10.63       0.00       0.00       1.38       8.06       0.00       8.06        0.07    13.15   0.758
  sub14                     10.63       0.00       0.00       0.96       8.40       0.00       8.40        0.08    13.93   0.791
  sub15                     10.63       0.00       0.00       3.19       6.46       0.00       6.46        0.11    19.14   0.608
  sub16                     10.63       0.00       0.00       3.51       6.20       0.00       6.20        0.06    12.01   0.584
  sub17                     10.63       0.00       0.00       3.40       6.29       0.00       6.29        0.05     9.91   0.592
  sub22                     10.63       0.00       0.00       4.57       5.27       0.00       5.27        0.33    59.53   0.496
  sub23                     10.63       0.00       0.00       3.93       5.82       0.00       5.82        0.28    50.05   0.548
  sub60                     10.63       0.00       0.00       1.28       6.54       0.00       6.54        1.98   196.13   0.615
  sub61                     10.63       0.00       0.00       1.81       6.69       0.00       6.69        2.06   224.83   0.630
  sub62                     10.63       0.00       0.00       0.85       7.26       0.00       7.26        2.23   236.97   0.684
  sub63                     10.63       0.00       0.00       3.08       5.87       0.00       5.87        1.78   199.96   0.553
  sub64                     10.63       0.00       0.00       1.59       6.27       0.00       6.27        1.91   187.22   0.590
  sub65                     10.63       0.00       0.00       1.38       6.37       0.00       6.37        1.96   190.91   0.599
  sub66                     10.63       0.00       0.00       3.08       5.39       0.00       5.39        1.65   167.73   0.507
  sub67                     10.63       0.00       0.00       0.85       7.71       0.00       7.71        2.38   272.25   0.726
  sub68                     10.63       0.00       0.00       1.49       7.05       0.00       7.05        2.17   241.26   0.664
  sub69                     10.63       0.00       0.00       1.59       7.35       0.00       7.35        1.72   204.41   0.692
  sub70                     10.63       7.50       0.00       6.16       9.71       0.01       9.71        2.22   229.02   0.536
  sub71                     10.63       0.00       0.00       0.85       7.06       0.00       7.06        1.67   170.86   0.664
  sub72                     10.63       0.00       0.00       0.74       5.52       0.00       5.52        1.12    91.59   0.519
  sub73                     10.63       9.45       0.00       6.83      10.48       0.00      10.49        2.46   215.21   0.522
  sub74                     10.63       0.00       0.00       7.97       2.19       0.00       2.19        0.88   108.49   0.206
  
  
  ******************
  Node Depth Summary
  ******************
  
  ---------------------------------------------------------------------------------
                                 Average  Maximum  Maximum  Time of Max    Reported
                                   Depth    Depth      HGL   Occurrence   Max Depth
  Node                 Type       Meters   Meters   Meters  days hr:min      Meters
  ---------------------------------------------------------------------------------
  WS02001211           JUNCTION     0.68     0.72     5.56     0  02:16        0.72
  WS02001212           JUNCTION     0.40     0.44     5.51     0  02:15        0.44
  WS02001213           JUNCTION     0.62     0.70     5.46     0  02:14        0.70
  WS02003069           JUNCTION     0.42     0.54     5.13     0  02:13        0.54
  WS02003072           JUNCTION     0.49     0.60     4.97     0  02:14        0.60
  WS02003073           JUNCTION     0.29     0.37     4.43     0  02:15        0.37
  WS02003060           JUNCTION     0.38     0.48     5.41     0  02:13        0.48
  WS02003066           JUNCTION     0.22     0.29     5.85     0  02:12        0.29
  WS02003059           JUNCTION     0.68     0.76     5.45     0  02:14        0.76
  WS02003067           JUNCTION     0.54     0.69     6.01     0  02:11        0.69
  WS02004401           JUNCTION     0.62     0.84     6.84     0  02:08        0.84
  WS02004402           JUNCTION     0.66     0.87     6.83     0  02:08        0.87
  WS02004403           JUNCTION     0.68     0.88     6.81     0  02:08        0.88
  WS02004404           JUNCTION     0.76     0.96     6.81     0  02:08        0.95
  WS02004406           JUNCTION     0.77     0.95     6.78     0  02:08        0.95
  WS02004409           JUNCTION     0.44     0.66     6.43     0  02:10        0.66
  WS02004410           JUNCTION     0.46     0.67     6.39     0  02:11        0.67
  WS02004411           JUNCTION     0.48     0.68     6.36     0  02:11        0.68
  WS02004412           JUNCTION     0.50     0.69     6.33     0  02:11        0.69
  WS02004413           JUNCTION     0.66     0.85     6.32     0  02:11        0.85
  WS02004405           JUNCTION     0.75     0.95     6.80     0  02:08        0.95
  WS02006109           JUNCTION     0.70     0.96     7.57     0  02:05        0.96
  WS02006110           JUNCTION     0.70     0.91     7.50     0  02:05        0.91
  WS02006111           JUNCTION     0.20     0.28     6.99     0  02:05        0.28
  WS02006112           JUNCTION     0.79     1.04     6.92     0  02:06        1.04
  WS02006113           JUNCTION     0.31     0.45     7.34     0  02:05        0.45
  WS02006115           JUNCTION     0.51     0.74     6.88     0  02:07        0.74
  WS02006116           JUNCTION     0.60     0.82     6.86     0  02:07        0.82
  WS02006230           JUNCTION     0.63     0.98     7.72     0  02:05        0.98
  WS02006231           JUNCTION     0.40     0.63     7.75     0  02:05        0.63
  WS02006232           JUNCTION     0.53     0.75     7.79     0  02:05        0.75
  WS02006234           JUNCTION     0.43     0.66     7.82     0  02:05        0.66
  WS02006235           JUNCTION     0.46     0.68     7.84     0  02:05        0.68
  WS02006238           JUNCTION     0.48     0.70     7.84     0  02:05        0.70
  WS02006240           JUNCTION     0.34     0.57     7.87     0  02:04        0.57
  WS02006242           JUNCTION     0.38     0.62     7.88     0  02:04        0.62
  WS02006243           JUNCTION     0.24     0.48     7.90     0  02:04        0.48
  WS02006245           JUNCTION     0.22     0.44     7.92     0  02:03        0.44
  WS02006247           JUNCTION     0.23     0.45     7.95     0  02:02        0.45
  WS02006248           JUNCTION     0.19     0.39     7.98     0  02:01        0.39
  WS02006249           JUNCTION     0.23     0.43     8.03     0  02:01        0.43
  WS02006239           JUNCTION     0.42     0.65     7.86     0  02:04        0.65
  WS02006251           JUNCTION     0.21     0.43     8.10     0  02:00        0.43
  WS02006252           JUNCTION     0.17     0.35     8.59     0  07:00        0.35
  WS02006253           JUNCTION     0.24     0.46     8.10     0  02:00        0.45
  WS02006256           JUNCTION     1.07     1.20     8.13     0  04:20        1.20
  WS02004138           JUNCTION     0.16     0.17     7.42     0  00:00        0.17
  WS02004407           JUNCTION     0.20     0.29     6.61     0  02:09        0.29
  WS02006228           JUNCTION     0.69     0.99     7.64     0  02:05        0.99
  WS02006229           JUNCTION     0.66     0.99     7.68     0  02:04        0.99
  WS02006280           JUNCTION     0.07     0.16     8.43     0  01:50        0.16
  WS02006284           JUNCTION     0.37     0.50     8.90     0  01:50        0.50
  WS02006287           JUNCTION     0.10     0.23     9.19     0  01:50        0.23
  WSF200               JUNCTION     0.19     0.30     5.54     0  02:11        0.30
  HS02004901           JUNCTION     0.13     0.24    10.06     0  01:47        0.24
  HS02004881           JUNCTION     0.01     0.03     9.06     0  01:50        0.03
  HS02004876           JUNCTION     0.05     0.11     9.14     0  01:47        0.11
  HS02004870           JUNCTION     0.02     0.05     9.33     0  01:50        0.05
  HS02004862           JUNCTION     0.02     0.05     9.44     0  01:51        0.05
  HS02004856           JUNCTION     0.08     0.11     9.54     0  01:51        0.11
  HS02004852           JUNCTION     0.01     0.03     9.54     0  01:52        0.03
  HS02004848           JUNCTION     0.01     0.03     9.63     0  01:51        0.03
  HS02004842           JUNCTION     0.33     0.36     9.63     0  01:51        0.36
  HS02004837           JUNCTION     0.03     0.05     9.63     0  01:51        0.05
  HS02004830           JUNCTION     0.04     0.07     9.54     0  01:51        0.07
  HS02004824           JUNCTION     0.02     0.05     9.45     0  02:16        0.05
  HS02004817           JUNCTION     0.44     0.54     9.39     0  01:51        0.54
  HS02004807           JUNCTION     0.13     0.22     9.39     0  01:51        0.22
  HS02004802           JUNCTION     0.17     0.25     9.38     0  01:51        0.25
  HS02004799           JUNCTION     0.13     0.28     9.49     0  01:48        0.28
  HS02004792           JUNCTION     0.04     0.11     9.63     0  01:47        0.11
  HS02004788           JUNCTION     0.03     0.08     9.98     0  01:48        0.08
  HS02004785           JUNCTION     0.05     0.14    10.04     0  01:48        0.14
  HS02004777           JUNCTION     0.15     0.26    10.06     0  01:47        0.26
  HS02004770           JUNCTION     0.12     0.23    10.06     0  01:47        0.23
  HS02004480           JUNCTION     0.09     0.21     9.46     0  01:48        0.21
  HS02004479           JUNCTION     0.12     0.25     9.46     0  01:48        0.25
  HS02004478           JUNCTION     0.06     0.14     9.37     0  01:49        0.14
  YS02001745           JUNCTION     0.68     0.88     8.40     0  03:08        0.88
  YS02001748           JUNCTION     1.07     1.34     8.42     0  02:36        1.32
  YS02001751           JUNCTION     1.25     2.03     8.91     0  02:16        1.52
  YS02001754           JUNCTION     1.50     2.07     8.68     0  02:16        1.80
  YS02001762           JUNCTION     1.70     2.03     8.43     0  03:07        2.02
  YS02001765           JUNCTION     1.65     1.98     8.43     0  03:08        1.97
  YS02001767           JUNCTION     1.62     1.93     8.42     0  03:08        1.92
  YS02001770           JUNCTION     1.61     1.91     8.41     0  03:09        1.90
  YS02001774           JUNCTION     1.68     1.98     8.40     0  03:10        1.97
  YS02001779           JUNCTION     1.43     1.68     8.37     0  02:42        1.68
  YS02001882           JUNCTION     0.43     0.85     7.56     0  03:02        0.84
  YS02001884           JUNCTION     0.52     0.94     7.56     0  03:02        0.94
  YS02001759           JUNCTION     1.74     2.07     8.43     0  03:10        2.06
  YS02001887           JUNCTION     0.60     1.02     7.56     0  03:03        1.02
  YS02001890           JUNCTION     0.63     1.05     7.56     0  03:02        1.05
  YS02001898           JUNCTION     0.40     0.81     7.55     0  03:03        0.81
  YS02001901           JUNCTION     0.51     0.94     7.55     0  03:02        0.94
  YS02001904           JUNCTION     0.49     0.91     7.54     0  03:02        0.91
  YS02001907           JUNCTION     0.82     1.25     7.54     0  03:02        1.25
  YS02001910           JUNCTION     0.61     1.04     7.55     0  03:03        1.04
  YS02001915           JUNCTION     0.41     0.83     7.55     0  03:03        0.83
  YS02001918           JUNCTION     0.16     0.49     7.55     0  03:02        0.48
  YS02001619           JUNCTION     1.21     1.61     8.54     0  02:24        1.47
  YS02001629           JUNCTION     1.57     1.85     8.40     0  02:29        1.84
  YS02001641           JUNCTION     1.67     1.94     8.38     0  02:34        1.93
  YS02001644           JUNCTION     1.67     1.92     8.35     0  02:40        1.92
  YS02001652           JUNCTION     1.52     2.14     8.73     0  02:19        1.91
  YS02001655           JUNCTION     1.28     2.20     9.05     0  02:21        1.72
  YS02001920           JUNCTION     0.26     0.55     7.56     0  03:03        0.54
  YS02001923           JUNCTION     0.11     0.30     7.56     0  03:02        0.29
  YS02001926           JUNCTION     0.20     0.26     7.71     0  03:01        0.26
  YS02001929           JUNCTION     0.10     0.14     7.84     0  03:01        0.14
  YS02001658           JUNCTION     1.01     2.30     9.44     0  02:25        1.58
  YS02001661           JUNCTION     0.79     2.23     9.63     0  02:44        1.62
  YS02001664           JUNCTION     0.35     0.57     8.50     0  02:44        0.56
  YS02001622           JUNCTION     1.23     1.62     8.52     0  02:29        1.49
  YS02001633           JUNCTION     1.66     1.96     8.42     0  02:34        1.93
  YS02001649           JUNCTION     1.71     2.05     8.44     0  02:43        2.05
  YS02001757           JUNCTION     1.83     2.18     8.44     0  03:05        2.16
  YS02001895           JUNCTION     0.39     0.81     7.55     0  03:03        0.81
  YS02001625           JUNCTION     1.52     1.78     8.38     0  02:28        1.78
  YS02163301           JUNCTION     1.60     1.90     8.42     0  02:34        1.87
  YS02163601           JUNCTION     1.71     2.01     8.41     0  02:34        1.98
  YS02164001           JUNCTION     1.65     1.94     8.40     0  02:34        1.91
  YS02001647           JUNCTION     1.50     1.80     8.41     0  02:45        1.79
  YSB1154              JUNCTION     0.26     0.40     9.46     0  01:48        0.40
  YSB6556              JUNCTION     0.16     0.29     9.46     0  01:48        0.29
  YSB1174              JUNCTION     0.21     0.35     9.46     0  01:49        0.35
  YSB1171              JUNCTION     0.41     0.55     9.46     0  01:48        0.55
  YS02006553           JUNCTION     0.82     1.25     7.53     0  03:01        1.25
  YS02006561           JUNCTION     0.23     0.56     7.22     0  03:02        0.56
  YS02006556           JUNCTION     0.79     1.21     7.52     0  03:02        1.21
  YS02006558           JUNCTION     0.84     1.24     7.51     0  03:02        1.24
  YS02001783           JUNCTION     0.46     1.28     7.42     0  02:23        1.07
  YS02001784           JUNCTION     0.49     1.47     7.54     0  02:23        1.06
  YS02001786           JUNCTION     0.44     1.82     7.85     0  02:23        0.99
  YS02001788           JUNCTION     0.39     1.77     7.75     0  02:23        0.94
  YS02001790           JUNCTION     0.51     1.96     7.60     0  02:21        1.17
  YS02001791           JUNCTION     0.48     1.63     7.10     0  02:21        1.22
  YS02001793           JUNCTION     0.65     3.54     8.37     0  02:19        1.80
  WS02004139           JUNCTION     0.62     0.66     5.57     0  02:16        0.66
  WSC                  OUTFALL      0.29     0.37     1.04     0  02:15        0.37
  3                    OUTFALL      0.10     0.20     6.20     0  04:20        0.20
  4                    OUTFALL      0.00     0.00     7.00     0  00:00        0.00
  5                    OUTFALL      0.00     0.00     5.00     0  00:00        0.00
  JK-storage           STORAGE      2.64     5.80     6.60     0  02:23        5.80
  CC-storage           STORAGE      1.08     1.40     8.40     0  03:07        1.40
  XR-storage           STORAGE      6.84     7.72     5.72     0  02:40        7.72
  
  
  *******************
  Node Inflow Summary
  *******************
  
  -------------------------------------------------------------------------------------------------
                                  Maximum  Maximum                  Lateral       Total        Flow
                                  Lateral    Total  Time of Max      Inflow      Inflow     Balance
                                   Inflow   Inflow   Occurrence      Volume      Volume       Error
  Node                 Type           LPS      LPS  days hr:min    10^6 ltr    10^6 ltr     Percent
  -------------------------------------------------------------------------------------------------
  WS02001211           JUNCTION      7.35   293.66     0  03:17       0.207         7.7       0.457
  WS02001212           JUNCTION      0.00   294.84     0  03:17           0        7.66       0.246
  WS02001213           JUNCTION      0.00   295.95     0  03:16           0        7.64       0.301
  WS02003069           JUNCTION      0.32   826.87     0  02:13     0.00902        14.4       0.166
  WS02003072           JUNCTION      0.00   826.82     0  02:14           0        14.3       0.214
  WS02003073           JUNCTION      1.82   828.64     0  02:14      0.0514        14.3       0.234
  WS02003060           JUNCTION     16.53   826.54     0  02:13       0.466        14.4       0.158
  WS02003066           JUNCTION      0.00   521.75     0  02:12           0        6.32       0.045
  WS02003059           JUNCTION      0.00   298.02     0  03:16           0        7.62       0.465
  WS02003067           JUNCTION      0.00   521.71     0  02:11           0        6.33       0.104
  WS02004401           JUNCTION      0.00   526.19     0  02:07           0        6.49       0.231
  WS02004402           JUNCTION      0.00   525.83     0  02:08           0        6.47       0.226
  WS02004403           JUNCTION      0.00   525.53     0  02:08           0        6.46       0.213
  WS02004404           JUNCTION      0.16   525.42     0  02:08     0.00457        6.45       0.169
  WS02004406           JUNCTION      0.00   525.51     0  02:08           0        6.42       0.413
  WS02004409           JUNCTION      0.00   525.15     0  02:09           0        6.39       0.138
  WS02004410           JUNCTION      0.00   523.69     0  02:09           0        6.38       0.168
  WS02004411           JUNCTION      0.00   522.62     0  02:10           0        6.37       0.183
  WS02004412           JUNCTION      0.00   522.01     0  02:11           0        6.36       0.212
  WS02004413           JUNCTION      0.00   521.78     0  02:11           0        6.35       0.336
  WS02004405           JUNCTION      0.04   525.40     0  02:08     0.00107        6.44       0.252
  WS02006109           JUNCTION      1.23   521.60     0  02:05      0.0347        6.51       0.211
  WS02006110           JUNCTION      0.00   521.62     0  02:05           0         6.5       0.205
  WS02006111           JUNCTION      0.00   541.40     0  02:05           0        6.48       0.038
  WS02006112           JUNCTION      9.91   533.04     0  02:05       0.054        6.53       0.340
  WS02006113           JUNCTION      0.00   521.96     0  02:05           0        6.49       0.074
  WS02006115           JUNCTION      0.00   533.78     0  02:05           0        6.51       0.182
  WS02006116           JUNCTION      0.00   528.22     0  02:06           0         6.5       0.183
  WS02006230           JUNCTION     10.28   325.52     0  04:23        0.29        4.86       0.212
  WS02006231           JUNCTION      0.00   315.40     0  04:22           0        4.57       0.066
  WS02006232           JUNCTION      0.00   315.54     0  04:22           0        4.58       0.230
  WS02006234           JUNCTION      0.00   315.79     0  04:22           0        4.58       0.042
  WS02006235           JUNCTION      0.00   315.95     0  04:21           0        4.62       0.160
  WS02006238           JUNCTION      0.00   198.42     0  04:22           0         1.8       0.191
  WS02006240           JUNCTION      0.00   205.48     0  02:02           0        1.78       0.181
  WS02006242           JUNCTION      0.00   213.32     0  02:02           0        1.77       0.208
  WS02006243           JUNCTION      0.00   222.20     0  02:01           0        1.75      -1.001
  WS02006245           JUNCTION      0.00   226.53     0  02:01           0        1.75       0.354
  WS02006247           JUNCTION      0.00   230.04     0  02:01           0        1.75      -0.028
  WS02006248           JUNCTION      0.00   232.62     0  02:00           0        1.75      -0.302
  WS02006249           JUNCTION      0.00   235.95     0  02:00           0        1.75       0.463
  WS02006239           JUNCTION      0.00   198.48     0  04:22           0        1.79       0.225
  WS02006251           JUNCTION      0.08   241.57     0  02:00     0.00217        1.77      -0.057
  WS02006252           JUNCTION      0.00   200.00     0  04:10           0        1.44       0.007
  WS02006253           JUNCTION      1.33    51.14     0  01:49     0.00698        0.33       0.074
  WS02006256           JUNCTION      0.00   600.00     0  01:47           0        6.46       0.041
  WS02004138           JUNCTION      0.00   285.00     0  00:00           0        7.52       0.071
  WS02004407           JUNCTION      0.00   525.29     0  02:09           0         6.4       0.063
  WS02006228           JUNCTION      0.00   520.38     0  02:05           0        6.49       0.152
  WS02006229           JUNCTION      0.00   520.29     0  02:05           0         6.5       0.148
  WS02006280           JUNCTION      0.00   250.77     0  01:50           0        1.65       0.004
  WS02006284           JUNCTION      0.10   250.79     0  01:50      0.0027        1.65       0.062
  WS02006287           JUNCTION      0.00   250.70     0  01:50           0        1.65       0.044
  WSF200               JUNCTION      0.00   521.77     0  02:12           0        6.32       0.037
  HS02004901           JUNCTION     12.01    12.01     0  01:45      0.0649      0.0651       2.778
  HS02004881           JUNCTION      5.13    49.92     0  01:49      0.0283       0.303       0.035
  HS02004876           JUNCTION      9.09    44.88     0  01:50      0.0545       0.275       0.197
  HS02004870           JUNCTION      9.46    35.90     0  01:50      0.0537       0.221       0.049
  HS02004862           JUNCTION      8.62    26.77     0  01:51      0.0595       0.167       0.102
  HS02004856           JUNCTION      7.08    18.19     0  01:50      0.0404       0.109       1.338
  HS02004852           JUNCTION      0.00    11.37     0  01:51           0      0.0688       0.079
  HS02004848           JUNCTION     19.27    19.27     0  02:15       0.129       0.129       0.035
  HS02004842           JUNCTION      0.00     7.96     0  02:16           0      0.0736      21.474
  HS02004837           JUNCTION     22.22    28.76     0  01:50       0.273       0.333       0.245
  HS02004830           JUNCTION      0.15    28.90     0  01:51     0.00423       0.323       0.383
  HS02004824           JUNCTION     23.98    52.78     0  02:16       0.169       0.492       0.110
  HS02004817           JUNCTION      0.60    53.38     0  02:16      0.0169       0.508       3.394
  HS02004807           JUNCTION     17.56    68.44     0  02:16      0.0987        0.59       0.739
  HS02004802           JUNCTION      0.00    68.45     0  02:16           0       0.587       0.678
  HS02004799           JUNCTION     13.93   155.61     0  01:47      0.0799       0.915       0.288
  HS02004792           JUNCTION     59.81   141.74     0  01:47       0.341       0.835       0.049
  HS02004788           JUNCTION     20.81    82.39     0  01:48       0.158       0.496       0.079
  HS02004785           JUNCTION      0.15    61.69     0  01:47     0.00423       0.339       0.145
  HS02004777           JUNCTION      0.03    61.69     0  01:46    0.000846        0.34       1.552
  HS02004770           JUNCTION     50.05    61.90     0  01:46       0.278       0.341       0.915
  HS02004480           JUNCTION      0.00   184.53     0  01:48           0        1.08       0.105
  HS02004479           JUNCTION      0.00    29.01     0  01:50           0       0.176       0.418
  HS02004478           JUNCTION      0.00   250.67     0  01:49           0        1.65       0.021
  YS02001745           JUNCTION    196.14   222.92     0  02:33        1.98        1.98       0.575
  YS02001748           JUNCTION      0.04   383.49     0  02:33     0.00127        1.98       1.186
  YS02001751           JUNCTION      0.01   457.97     0  02:16     0.00031        1.95       1.206
  YS02001754           JUNCTION      0.26   207.52     0  02:24     0.00733        1.93       1.268
  YS02001762           JUNCTION      0.00   227.74     0  02:44           0        1.66       1.272
  YS02001765           JUNCTION      0.00   227.43     0  02:46           0        1.66       1.471
  YS02001767           JUNCTION      0.54   227.32     0  02:46      0.0151        1.69       2.146
  YS02001770           JUNCTION    237.12   352.22     0  03:13        2.24        2.43       1.301
  YS02001774           JUNCTION      0.00   352.89     0  03:13           0       0.933       2.753
  YS02001779           JUNCTION      0.01   353.35     0  03:12    0.000141       0.901       1.696
  YS02001882           JUNCTION      0.00    12.80     0  02:16           0      0.0171      13.825
  YS02001884           JUNCTION      0.00    17.46     0  02:13           0      0.0513      12.512
  YS02001759           JUNCTION    224.87   443.41     0  02:46        2.06         3.5       0.647
  YS02001887           JUNCTION    272.70   272.70     0  02:58        2.39        2.42       0.334
  YS02001890           JUNCTION      0.00   268.20     0  02:56           0        2.38       0.370
  YS02001898           JUNCTION      0.00   265.28     0  03:01           0        2.36       0.116
  YS02001901           JUNCTION      0.00   264.53     0  02:22           0        2.36       0.276
  YS02001904           JUNCTION      0.00   263.32     0  03:02           0        2.36       0.252
  YS02001907           JUNCTION      0.00   526.71     0  03:06           0        5.21       0.453
  YS02001910           JUNCTION      0.00   267.93     0  03:09           0        2.86       0.393
  YS02001915           JUNCTION    170.88   265.17     0  03:04        1.67        2.86       0.195
  YS02001918           JUNCTION      0.00   109.07     0  03:16           0         1.2       0.142
  YS02001619           JUNCTION    167.73   167.73     0  03:01        1.65        1.65       0.734
  YS02001629           JUNCTION      0.00   212.48     0  02:17           0        1.57       1.826
  YS02001641           JUNCTION      0.00   352.36     0  03:00           0        3.43       0.611
  YS02001644           JUNCTION    187.26  1005.03     0  03:08        1.91        8.29       0.317
  YS02001652           JUNCTION      0.00   256.89     0  02:48           0        1.73       1.334
  YS02001655           JUNCTION      0.15   376.98     0  02:18     0.00434        1.75       1.436
  YS02001920           JUNCTION      2.87   106.77     0  03:03      0.0809         1.2       0.228
  YS02001923           JUNCTION      0.04    91.49     0  03:01     0.00106        1.12       0.042
  YS02001926           JUNCTION      0.05    91.60     0  03:01     0.00147        1.12       0.282
  YS02001929           JUNCTION     91.59    91.59     0  03:01        1.12        1.12       0.041
  YS02001658           JUNCTION      0.00   612.26     0  02:24           0        1.81       1.223
  YS02001661           JUNCTION      0.00   586.20     0  02:44           0        2.51      -0.056
  YS02001664           JUNCTION    199.96   374.32     0  02:44        1.78        2.48       0.280
  YS02001622           JUNCTION      0.00   171.22     0  02:16           0        1.64       1.956
  YS02001633           JUNCTION    191.11   352.25     0  03:00        1.96        3.49       0.927
  YS02001649           JUNCTION      0.00   683.78     0  02:40           0        5.25       0.703
  YS02001757           JUNCTION      0.00  1281.59     0  02:40           0        7.66       1.213
  YS02001895           JUNCTION      0.00   267.40     0  02:59           0        2.37       0.201
  YS02001625           JUNCTION      0.00   212.66     0  02:17           0        1.61       2.467
  YS02163301           JUNCTION      0.00   183.09     0  02:24           0        1.55       1.563
  YS02163601           JUNCTION      0.11   352.25     0  03:01      0.0031        3.45       0.871
  YS02164001           JUNCTION      0.00   352.55     0  03:00           0        3.43       0.585
  YS02001647           JUNCTION      0.00   512.80     0  03:11           0        4.52       0.624
  YSB1154              JUNCTION     16.17    16.17     0  01:48       0.097      0.0978       1.500
  YSB6556              JUNCTION      0.00    16.24     0  01:49           0      0.0986       1.284
  YSB1174              JUNCTION     13.15    13.15     0  01:45      0.0704      0.0709       1.845
  YSB1171              JUNCTION      0.00    29.32     0  01:48           0       0.175       3.755
  YS02006553           JUNCTION      0.00   526.74     0  03:06           0         5.2       0.289
  YS02006561           JUNCTION      0.00   753.63     0  03:02           0        7.33       0.007
  YS02006556           JUNCTION      0.00   526.76     0  03:06           0         5.2       0.211
  YS02006558           JUNCTION    242.14   753.68     0  03:02        2.19        7.37       0.070
  YS02001783           JUNCTION      0.00   753.64     0  03:03           0        7.33       0.028
  YS02001784           JUNCTION      1.06   754.82     0  03:03      0.0299        7.36       0.044
  YS02001786           JUNCTION      0.06   754.73     0  03:03     0.00159        7.36       0.042
  YS02001788           JUNCTION      0.07   754.80     0  03:03       0.002        7.36       0.024
  YS02001790           JUNCTION      0.15   754.95     0  03:03     0.00437        7.36       0.030
  YS02001791           JUNCTION      0.00   754.97     0  03:03           0        7.36       0.015
  YS02001793           JUNCTION      0.00   755.17     0  03:03           0        7.36       0.004
  WS02004139           JUNCTION      0.32   290.40     0  00:00     0.00905        7.53       0.510
  WSC                  OUTFALL       0.00   828.63     0  02:15           0        14.3       0.000
  3                    OUTFALL       0.00   478.97     0  04:20           0        3.61       0.000
  4                    OUTFALL       0.00     0.00     0  00:00           0           0       0.000 ltr
  5                    OUTFALL       0.00     0.00     0  00:00           0           0       0.000 ltr
  JK-storage           STORAGE       0.00   961.53     0  02:19           0        7.51     -10.612
  CC-storage           STORAGE       0.00  1281.54     0  02:40           0        5.54       1.184
  XR-storage           STORAGE     519.52   519.52     0  03:01        8.98        9.58      -0.000
  
  
  **********************
  Node Surcharge Summary
  **********************
  
  Surcharging occurs when water rises above the top of the highest conduit.
  ---------------------------------------------------------------------
                                               Max. Height   Min. Depth
                                   Hours       Above Crown    Below Rim
  Node                 Type      Surcharged         Meters       Meters
  ---------------------------------------------------------------------
  WS02006109           JUNCTION        1.01          0.136        1.684
  WS02006110           JUNCTION        0.03          0.001        1.849
  WS02006112           JUNCTION        0.20          0.041        1.639
  WS02006232           JUNCTION        0.14          0.048        1.432
  WS02006228           JUNCTION        0.98          0.160        2.040
  YS02001748           JUNCTION        5.22          0.260        0.930
  YS02001751           JUNCTION        5.47          1.034        0.166
  YS02001754           JUNCTION        5.72          1.023        0.127
  YS02001762           JUNCTION        5.94          1.029        0.121
  YS02001765           JUNCTION        5.92          0.976        0.124
  YS02001767           JUNCTION        5.90          0.933        0.097
  YS02001770           JUNCTION        5.88          0.881        0.039
  YS02001774           JUNCTION        5.93          0.975        0.075
  YS02001779           JUNCTION        5.69          0.680        0.000
  YS02001759           JUNCTION        5.97          1.070        0.140
  YS02001890           JUNCTION        0.03          0.003        0.757
  YS02001907           JUNCTION        1.24          0.244        0.706
  YS02001910           JUNCTION        0.21          0.040        1.060
  YS02001619           JUNCTION        5.43          0.610        0.000
  YS02001629           JUNCTION        5.46          0.470        0.000
  YS02001641           JUNCTION        5.93          0.938        0.162
  YS02001644           JUNCTION        5.93          0.920        0.000
  YS02001652           JUNCTION        5.76          1.106        0.024
  YS02001655           JUNCTION        5.49          1.200        0.000
  YS02001658           JUNCTION        5.25          1.300        0.000
  YS02001661           JUNCTION        0.21          1.155        0.235
  YS02001622           JUNCTION        5.52          0.620        0.000
  YS02001633           JUNCTION        5.91          0.944        0.116
  YS02001649           JUNCTION        5.95          1.050        0.000
  YS02001757           JUNCTION        6.03          1.177        0.033
  YS02001625           JUNCTION        5.84          0.780        0.000
  YS02163301           JUNCTION        5.89          0.898        0.132
  YS02163601           JUNCTION        5.95          1.009        0.071
  YS02164001           JUNCTION        5.92          0.940        0.160
  YS02001647           JUNCTION        5.81          0.805        0.095
  YS02006553           JUNCTION        1.33          0.251        0.939
  YS02006556           JUNCTION        0.68          0.168        1.182
  YS02006558           JUNCTION        0.60          0.145        1.255
  YS02001783           JUNCTION        1.02          0.479        1.121
  YS02001784           JUNCTION        1.09          0.670        0.820
  YS02001786           JUNCTION        1.02          1.022        0.408
  YS02001788           JUNCTION        1.01          0.968        0.512
  YS02001790           JUNCTION        1.91          1.157        0.000
  YS02001791           JUNCTION        1.94          0.827        1.093
  YS02001793           JUNCTION        2.02          2.535        0.065
  
  
  *********************
  Node Flooding Summary
  *********************
  
  Flooding refers to all water that overflows a node, whether it ponds or not.
  --------------------------------------------------------------------------
                                                             Total   Maximum
                                 Maximum   Time of Max       Flood    Ponded
                        Hours       Rate    Occurrence      Volume     Depth
  Node                 Flooded       LPS   days hr:min    10^6 ltr    Meters
  --------------------------------------------------------------------------
  YS02001779              2.78    353.20      0  03:12       0.879     0.000
  YS02001619              0.01     27.02      0  02:26       0.000     0.000
  YS02001629              0.01     28.65      0  02:30       0.000     0.000
  YS02001644              4.90   1004.96      0  03:08       6.714     0.000
  YS02001655              0.01    168.28      0  02:21       0.000     0.000
  YS02001658              0.01    353.88      0  02:27       0.001     0.000
  YS02001622              0.01     24.90      0  02:29       0.000     0.000
  YS02001649              0.06     42.33      0  02:45       0.003     0.000
  YS02001625              0.32     19.60      0  02:32       0.003     0.000
  YS02001790              0.01    104.00      0  02:21       0.000     0.000
  JK-storage              1.81    455.00      0  03:03       1.941     0.000
  XR-storage              3.38    234.52      0  03:01       1.262     0.000
  
  
  **********************
  Storage Volume Summary
  **********************
  
  --------------------------------------------------------------------------------------------------
                         Average     Avg  Evap Exfil       Maximum     Max    Time of Max    Maximum
                          Volume    Pcnt  Pcnt  Pcnt        Volume    Pcnt     Occurrence    Outflow
  Storage Unit           1000 m3    Full  Loss  Loss       1000 m3    Full    days hr:min        LPS
  --------------------------------------------------------------------------------------------------
  JK-storage               0.132      45     0     0         0.291     100       0  02:23     600.00
  CC-storage               2.997      19     0     0         3.894      25       0  03:07     200.00
  XR-storage               0.821      89     0     0         0.926     100       0  02:40     285.00
  
  
  ***********************
  Outfall Loading Summary
  ***********************
  
  -----------------------------------------------------------
                         Flow       Avg       Max       Total
                         Freq      Flow      Flow      Volume
  Outfall Node           Pcnt       LPS       LPS    10^6 ltr
  -----------------------------------------------------------
  WSC                   99.99    551.51    828.63      14.315
  3                     93.74    178.52    478.97       3.612
  4                      0.00      0.00      0.00       0.000
  5                      0.00      0.00      0.00       0.000
  -----------------------------------------------------------
  System                48.43    730.03   1013.23      17.927
  
  
  ********************
  Link Flow Summary
  ********************
  
  -----------------------------------------------------------------------------
                                 Maximum  Time of Max   Maximum    Max/    Max/
                                  |Flow|   Occurrence   |Veloc|    Full    Full
  Link                 Type          LPS  days hr:min     m/sec    Flow   Depth
  -----------------------------------------------------------------------------
  WS02003066WSF200     CONDUIT    521.77     0  02:12      2.70    0.09    0.23
  WS02006287WS02006284 CONDUIT    250.70     0  01:50      1.73    0.12    0.24
  WS02006284WS02006280 CONDUIT    250.77     0  01:50      1.97    0.11    0.22
  WS02006280WS02006229 CONDUIT    250.78     0  01:50      3.17    0.05    0.16
  WS02006229WS02006228 CONDUIT    520.38     0  02:05      1.04    1.72    1.00
  WS02006256WS02006235 CONDUIT    166.25     0  00:01      2.58    1.76    1.00
  WS02006253WS02006251 CONDUIT     55.44     0  02:04      0.53    0.17    0.62
  WS02006252WS02006251 CONDUIT    200.34     0  04:10      1.97    0.74    0.76
  WS02006251WS02006249 CONDUIT    235.95     0  02:00      0.96    0.68    0.61
  WS02006249WS02006248 CONDUIT    232.62     0  02:00      1.03    1.27    0.58
  WS02006248WS02006247 CONDUIT    230.04     0  02:01      0.98    0.50    0.60
  WS02006247WS02006245 CONDUIT    226.53     0  02:01      0.93    1.80    0.63
  WS02006245WS02006243 CONDUIT    222.20     0  02:01      0.97    0.66    0.64
  WS02006243WS02006242 CONDUIT    213.32     0  02:02      0.79    0.46    0.76
  WS02006242WS02006240 CONDUIT    205.48     0  02:02      0.66    0.82    0.84
  WS02006240WS02006239 CONDUIT    198.48     0  04:22      0.67    0.62    0.84
  WS02006239WS02006238 CONDUIT    198.42     0  04:22      0.67    0.63    0.95
  WS02006238WS02006235 CONDUIT    198.43     0  04:22      1.25    0.44    0.98
  WS02006235WS02006234 CONDUIT    315.79     0  04:22      0.95    3.33    0.93
  WS02006234WS02006232 CONDUIT    315.54     0  04:22      1.13    0.64    0.97
  WS02006232WS02006231 CONDUIT    315.40     0  04:22      0.94    0.66    0.94
  WS02006231WS02006230 CONDUIT    315.24     0  04:23      1.29    4.78    0.88
  WS02006230WS02006229 CONDUIT    325.43     0  04:23      0.86    7.24    1.00
  WS02006228WS02006109 CONDUIT    520.37     0  02:05      1.04    2.27    1.00
  WS02006116WS02004401 CONDUIT    526.19     0  02:07      0.76    0.73    0.83
  WS02006115WS02006116 CONDUIT    528.22     0  02:06      0.84    0.68    0.75
  WS02006113WS02006111 CONDUIT    541.40     0  02:05      2.43    0.65    0.45
  WS02006112WS02006115 CONDUIT    533.78     0  02:05      0.74    0.32    0.87
  WS02006111WS02006112 CONDUIT    524.72     0  02:05      1.47    0.25    0.67
  WS02006110WS02006113 CONDUIT    521.96     0  02:05      1.24    0.47    0.78
  WS02006109WS02006110 CONDUIT    521.62     0  02:05      1.04    1.00    1.00
  WS02004411WS02004412 CONDUIT    522.01     0  02:11      0.91    0.74    0.69
  WS02004401WS02004402 CONDUIT    525.83     0  02:08      0.77    0.63    0.85
  WS02004413WS02003067 CONDUIT    521.71     0  02:11      1.09    0.22    0.59
  WS02004412WS02004413 CONDUIT    521.78     0  02:11      0.80    0.35    0.77
  WS02004410WS02004411 CONDUIT    522.62     0  02:10      0.93    0.71    0.68
  WS02004409WS02004410 CONDUIT    523.69     0  02:09      0.95    0.68    0.66
  WS02004407WS02004409 CONDUIT    525.15     0  02:09      1.44    0.19    0.47
  WS02004406WS02004407 CONDUIT    525.29     0  02:09      1.03    0.23    0.62
  WS02004405WS02004406 CONDUIT    525.51     0  02:08      0.68    1.04    0.95
  WS02004404WS02004405 CONDUIT    525.36     0  02:08      0.84    5.15    0.95
  WS02004403WS02004404 CONDUIT    525.26     0  02:08      0.74    0.38    0.92
  WS02004402WS02004403 CONDUIT    525.53     0  02:08      0.76    0.76    0.88
  WS02004139WS02001211 CONDUIT    286.31     0  03:17      0.81    0.36    0.53
  WS02004138WS02004139 CONDUIT    290.07     0  00:00      3.33    0.06    0.39
  WS02003067WS02003066 CONDUIT    521.75     0  02:12      1.19    0.17    0.41
  WS02001213WS02003059 CONDUIT    298.02     0  03:16      0.80    0.49    0.72
  WS02001212WS02001213 CONDUIT    295.95     0  03:16      1.19    0.46    0.41
  WS02001211WS02001212 CONDUIT    294.84     0  03:17      0.67    0.23    0.58
  WS02003072WS02003073 CONDUIT    826.82     0  02:14      1.65    1.79    0.46
  WS02003069WS02003072 CONDUIT    826.82     0  02:14      1.56    0.40    0.48
  WS02003060WS02003069 CONDUIT    826.55     0  02:13      1.81    0.32    0.42
  WS02003059WS02003060 CONDUIT    300.89     0  03:16      0.82    0.20    0.62
  HS02004901HS02004770 CONDUIT     11.86     0  01:47      0.05    0.04    0.34
  HS02004876HS02004881 CONDUIT     44.96     0  01:50      0.68    0.48    0.09
  HS02004870HS02004876 CONDUIT     35.89     0  01:50      0.47    0.02    0.11
  HS02004842HS02004848 CONDUIT      7.96     0  02:16      0.04    0.00    0.28
  HS02004837HS02004842 CONDUIT      8.06     0  02:20      0.41    0.00    0.30
  HS02004830HS02004837 CONDUIT     28.75     0  01:51      0.48    0.03    0.09
  HS02004824HS02004830 CONDUIT     28.90     0  01:52      0.51    0.04    0.08
  HS02004817HS02004824 CONDUIT     52.78     0  02:16      0.18    0.02    0.42
  HS02004770HS02004777 CONDUIT     61.66     0  01:46      0.25    0.11    0.35
  HS02004799HS02004480 CONDUIT    155.54     0  01:47      0.65    0.20    0.34
  HS02004792HS02004799 CONDUIT    141.71     0  01:47      0.74    0.09    0.27
  HS02004788HS02004792 CONDUIT     82.36     0  01:48      0.88    0.05    0.13
  HS02004785HS02004788 CONDUIT     61.65     0  01:48      0.55    0.46    0.16
  HS02004777HS02004785 CONDUIT     61.54     0  01:47      0.30    0.08    0.29
  HS02004480HS02004478 CONDUIT    184.33     0  01:49      1.04    0.78    0.25
  HS02004479HS02004480 CONDUIT     29.23     0  01:51      0.28    0.03    0.33
  HS02004862HS02004870 CONDUIT     26.75     0  01:51      0.52    0.03    0.07
  HS02004848HS02004852 CONDUIT     11.37     0  01:51      0.35    0.01    0.05
  HS02004856HS02004862 CONDUIT     18.17     0  01:51      0.38    0.02    0.07
  HS02004852HS02004856 CONDUIT     11.35     0  01:52      0.16    0.01    0.10
  HS02004802HS02004478 CONDUIT     68.53     0  02:17      0.36    0.06    0.28
  HS02004478WS02006287 CONDUIT    250.70     0  01:50      1.43    0.07    0.19
  HS02004817HS02004807 CONDUIT     53.46     0  02:17      0.14    0.03    0.54
  HS02004807HS02004802 CONDUIT     68.45     0  02:16      0.30    0.13    0.33
  YS02001759YS02001757 CONDUIT    443.58     0  02:46      0.56    0.32    1.00
  YS02001762YS02001759 CONDUIT    227.92     0  02:44      0.29    0.26    1.00
  YS02001765YS02001762 CONDUIT    227.74     0  02:44      0.29    0.21    1.00
  YS02001770YS02001767 CONDUIT    226.78     0  02:46      0.38    0.90    1.00
  YS02001774YS02001770 CONDUIT    352.89     0  03:13      0.45    0.23    1.00
  YS02001779YS02001774 CONDUIT    353.35     0  03:12      0.45    0.18    1.00
  YS02001649YS02001757 CONDUIT    683.75     0  02:40      0.87    0.41    1.00
  YS02001767YS02001765 CONDUIT    227.43     0  02:46      0.35    0.29    1.00
  YS02006561YS02001783 CONDUIT    753.64     0  03:03      2.10    0.39    0.85
  YS02001783YS02001784 CONDUIT    753.76     0  03:03      1.59    1.04    1.00
  YS02001784YS02001785 CONDUIT    754.67     0  03:03      1.71    1.76    1.00
  YS02001788YS02001790 CONDUIT    754.79     0  03:03      2.24    0.56    1.00
  YS02001790YS02001791 CONDUIT    754.97     0  03:03      2.71    0.82    1.00
  YS02001791YS02001793 CONDUIT    755.17     0  03:03      5.48    0.32    1.00
  YS02001910YS02001907 CONDUIT    270.44     0  03:18      0.49    0.15    1.00
  YS02001786YS02001788 CONDUIT    754.73     0  03:03      2.14    1.45    1.00
  YS02001915YS02001910 CONDUIT    267.93     0  03:09      0.56    0.13    0.92
  YS02001918YS02001915 CONDUIT    111.06     0  03:16      0.44    0.06    0.66
  YS02001923YS02001920 CONDUIT    103.90     0  03:03      0.64    0.05    0.42
  YS02001926YS02001923 CONDUIT     91.45     0  03:01      0.74    0.13    0.21
  YS02001929YS02001926 CONDUIT     91.54     0  03:01      0.81    0.04    0.20
  YS02001920YS02001918 CONDUIT    109.07     0  03:16      0.63    0.11    0.52
  YS02001629YS02163301 CONDUIT    183.09     0  02:24      0.23    0.23    1.00
  YS02001619YS02001622 CONDUIT    171.22     0  02:16      0.65    0.25    1.00
  YS02001622YS02001625 CONDUIT    212.66     0  02:17      0.32    0.11    1.00
  YS02001625YS02001629 CONDUIT    212.48     0  02:17      0.27    0.10    1.00
  YS02163301YS02001633 CONDUIT    182.77     0  02:24      0.23    0.17    1.00
  YS02163601YS02164001 CONDUIT    352.55     0  03:00      0.45    0.31    1.00
  YS02164001YS02001641 CONDUIT    352.36     0  03:00      0.45    0.48    1.00
  YS02001641YS02001644 CONDUIT    352.43     0  03:00      0.45    1.14    1.00
  YS02001647YS02001649 CONDUIT    512.80     0  03:11      0.65    0.27    1.00
  YS02006553YS02006556 CONDUIT    526.76     0  03:06      0.67    0.45    1.00
  YS02006556YS02006558 CONDUIT    526.85     0  03:06      0.67    0.42    1.00
  YSB6556YSB1171       CONDUIT     16.50     0  01:50      0.07    0.02    0.60
  YS02001907YS02006553 CONDUIT    526.74     0  03:06      0.59    0.62    1.00
  YS02006558YS02006561 CONDUIT    753.63     0  03:02      3.20    1.67    0.97
  YS02001633YS02163601 CONDUIT    352.14     0  03:01      0.45    0.37    1.00
  YS02001644YS02001647 CONDUIT    513.05     0  03:11      0.65    0.30    1.00
  YS02001745YS02001748 CONDUIT    383.45     0  02:33      1.51    0.15    0.94
  YS02001748YS02001751 CONDUIT    457.96     0  02:16      1.12    0.23    1.00
  YS02001751YS02001754 CONDUIT    207.26     0  02:24      0.97    0.10    1.00
  YS02001754YS02001757 CONDUIT    207.43     0  02:24      0.33    0.08    1.00
  YS02001882YS02001884 CONDUIT     12.80     0  02:16      0.12    0.01    0.86
  YS02001884YS02001887 CONDUIT     18.78     0  03:20      0.09    0.03    0.96
  YS02001890YS02001895 CONDUIT    267.40     0  02:59      0.44    0.12    0.90
  YS02001895YS02001898 CONDUIT    265.28     0  03:01      0.56    0.46    0.80
  YS02001898YS02001901 CONDUIT    264.53     0  02:22      0.48    0.17    0.88
  YS02001901YS02001904 CONDUIT    263.32     0  03:02      0.44    0.41    0.93
  YS02001904YS02001907 CONDUIT    267.11     0  02:23      0.38    0.09    0.96
  YS02001887YS02001890 CONDUIT    268.20     0  02:56      0.38    0.46    1.00
  YS02001652YS02001649 CONDUIT    257.27     0  02:48      0.58    0.13    1.00
  YS02001655YS02001652 CONDUIT    256.89     0  02:48      1.05    0.12    1.00
  YS02001658YS02001655 CONDUIT    376.82     0  02:18      1.29    0.16    1.00
  YS02001661YS02001658 CONDUIT    612.26     0  02:24      1.59    0.24    1.00
  YS02001664YS02001661 CONDUIT    586.20     0  02:44      1.44    0.18    0.72
  YSB1154YSB6556       CONDUIT     16.24     0  01:49      0.16    0.03    0.49
  YSB1174YSB1171       CONDUIT     13.24     0  01:45      0.06    0.02    0.61
  YSB1171HS02004479    CONDUIT     29.01     0  01:50      0.54    0.02    0.47
  HS02004881HS02006253 CONDUIT     49.92     0  01:50      1.83    0.01    0.10
  YS02001793JiankangQianchi CONDUIT    961.53     0  02:19     14.31    0.08    1.00
  YS02001757CaochengTiaoxuchi CONDUIT   1281.54     0  02:40      1.81    0.56    1.00
  WSF200WS02003060     CONDUIT    521.87     0  02:12      1.63    0.12    0.33
  1                    CONDUIT    828.63     0  02:15      3.16    0.29    0.37
  2                    CONDUIT      0.00     0  00:00      0.00    0.00    0.00
  3                    CONDUIT    478.97     0  04:20      9.72    0.76    0.66
  4                    CONDUIT      0.00     0  00:00      0.00    0.00    0.00
  CC-Pump-1            PUMP         0.00     0  00:00              0.00
  CC-Pump-2            PUMP       200.00     0  04:10              1.00
  JK-Pump-1            PUMP       300.00     0  01:47              1.00
  JK-Pump-2            PUMP       300.00     0  00:00              1.00
  XR-Pump-1            PUMP        95.00     0  00:00              1.00
  XR-Pump-2            PUMP        95.00     0  00:00              1.00
  XR-Pump-3            PUMP         0.00     0  00:00              0.00
  XR-Pump-4            PUMP        95.00     0  00:00              1.00
  
  
  ***************************
  Flow Classification Summary
  ***************************
  
  -------------------------------------------------------------------------------------
                      Adjusted    ---------- Fraction of Time in Flow Class ---------- 
                       /Actual         Up    Down  Sub   Sup   Up    Down  Norm  Inlet 
  Conduit               Length    Dry  Dry   Dry   Crit  Crit  Crit  Crit  Ltd   Ctrl  
  -------------------------------------------------------------------------------------
  WS02003066WSF200        1.00   0.07  0.00  0.00  0.00  0.93  0.00  0.00  0.74  0.00
  WS02006287WS02006284    1.00   0.04  0.01  0.00  0.56  0.39  0.00  0.00  0.70  0.00
  WS02006284WS02006280    1.00   0.05  0.00  0.00  0.00  0.00  0.00  0.95  0.00  0.00
  WS02006280WS02006229    1.00   0.05  0.00  0.00  0.00  0.00  0.00  0.95  0.00  0.00
  WS02006229WS02006228    1.00   0.00  0.00  0.00  0.99  0.00  0.00  0.01  0.00  0.00
  WS02006256WS02006235    1.00   0.00  0.00  0.00  1.00  0.00  0.00  0.00  0.00  0.00
  WS02006253WS02006251    1.00   0.03  0.01  0.00  0.95  0.00  0.00  0.00  0.00  0.00
  WS02006252WS02006251    1.00   0.07  0.00  0.00  0.00  0.00  0.93  0.00  0.00  0.00
  WS02006251WS02006249    1.00   0.00  0.00  0.00  1.00  0.00  0.00  0.00  0.42  0.00
  WS02006249WS02006248    1.00   0.00  0.02  0.00  0.65  0.00  0.32  0.00  0.00  0.00
  WS02006248WS02006247    1.00   0.02  0.00  0.00  0.97  0.00  0.00  0.00  0.34  0.00
  WS02006247WS02006245    1.00   0.02  0.00  0.00  0.98  0.00  0.00  0.00  0.00  0.00
  WS02006245WS02006243    1.00   0.01  0.00  0.00  0.95  0.00  0.00  0.03  0.07  0.00
  WS02006243WS02006242    1.00   0.01  0.00  0.00  0.99  0.00  0.00  0.00  0.16  0.00
  WS02006242WS02006240    1.00   0.00  0.00  0.00  0.99  0.00  0.00  0.00  0.00  0.00
  WS02006240WS02006239    1.00   0.00  0.00  0.00  0.97  0.00  0.00  0.03  0.01  0.00
  WS02006239WS02006238    1.00   0.00  0.00  0.00  1.00  0.00  0.00  0.00  0.01  0.00
  WS02006238WS02006235    1.00   0.00  0.00  0.00  1.00  0.00  0.00  0.00  0.00  0.00
  WS02006235WS02006234    1.00   0.00  0.00  0.00  0.97  0.00  0.03  0.00  0.00  0.00
  WS02006234WS02006232    1.00   0.00  0.00  0.00  1.00  0.00  0.00  0.00  0.05  0.00
  WS02006232WS02006231    1.00   0.00  0.00  0.00  0.99  0.00  0.00  0.00  0.00  0.00
  WS02006231WS02006230    1.00   0.00  0.00  0.00  0.32  0.00  0.68  0.00  0.00  0.00
  WS02006230WS02006229    1.00   0.00  0.00  0.00  0.98  0.00  0.00  0.02  0.00  0.00
  WS02006228WS02006109    1.00   0.00  0.00  0.00  1.00  0.00  0.00  0.00  0.00  0.00
  WS02006116WS02004401    1.00   0.03  0.00  0.00  0.97  0.00  0.00  0.00  0.00  0.00
  WS02006115WS02006116    1.00   0.03  0.00  0.00  0.97  0.00  0.00  0.01  0.00  0.00
  WS02006113WS02006111    1.00   0.02  0.00  0.00  0.00  0.98  0.00  0.00  0.17  0.00
  WS02006112WS02006115    1.00   0.02  0.00  0.00  0.97  0.00  0.00  0.00  0.00  0.00
  WS02006111WS02006112    1.00   0.02  0.00  0.00  0.97  0.00  0.00  0.00  0.98  0.00
  WS02006110WS02006113    1.00   0.01  0.01  0.00  0.98  0.00  0.00  0.00  0.00  0.00
  WS02006109WS02006110    1.00   0.00  0.01  0.00  0.98  0.00  0.01  0.00  0.00  0.00
  WS02004411WS02004412    1.00   0.04  0.00  0.00  0.96  0.00  0.00  0.00  0.00  0.00
  WS02004401WS02004402    1.00   0.03  0.00  0.00  0.97  0.00  0.00  0.00  0.00  0.00
  WS02004413WS02003067    1.00   0.04  0.02  0.00  0.00  0.00  0.94  0.00  0.00  0.00
  WS02004412WS02004413    1.00   0.04  0.00  0.00  0.96  0.00  0.00  0.00  0.03  0.00
  WS02004410WS02004411    1.00   0.04  0.00  0.00  0.96  0.00  0.00  0.00  0.03  0.00
  WS02004409WS02004410    1.00   0.04  0.00  0.00  0.96  0.00  0.00  0.00  0.03  0.00
  WS02004407WS02004409    1.00   0.04  0.00  0.00  0.96  0.00  0.00  0.00  0.89  0.00
  WS02004406WS02004407    1.00   0.00  0.04  0.00  0.96  0.00  0.00  0.00  0.00  0.00
  WS02004405WS02004406    1.00   0.00  0.00  0.00  1.00  0.00  0.00  0.00  0.00  0.00
  WS02004404WS02004405    1.00   0.00  0.00  0.00  1.00  0.00  0.00  0.00  0.00  0.00
  WS02004403WS02004404    1.00   0.00  0.03  0.00  0.97  0.00  0.00  0.00  0.01  0.00
  WS02004402WS02004403    1.00   0.03  0.00  0.00  0.97  0.00  0.00  0.00  0.00  0.00
  WS02004139WS02001211    1.00   0.00  0.00  0.00  1.00  0.00  0.00  0.00  0.00  0.00
  WS02004138WS02004139    1.00   0.00  0.00  0.00  0.99  0.01  0.00  0.00  1.00  0.00
  WS02003067WS02003066    1.00   0.06  0.01  0.00  0.94  0.00  0.00  0.00  0.00  0.00
  WS02001213WS02003059    1.00   0.00  0.00  0.00  0.99  0.00  0.00  0.00  0.00  0.00
  WS02001212WS02001213    1.00   0.00  0.00  0.00  0.84  0.00  0.15  0.00  0.00  0.00
  WS02001211WS02001212    1.00   0.00  0.00  0.00  1.00  0.00  0.00  0.00  0.00  0.00
  WS02003072WS02003073    1.00   0.00  0.00  0.00  0.00  0.00  0.00  1.00  0.00  0.00
  WS02003069WS02003072    1.00   0.00  0.00  0.00  0.99  0.01  0.00  0.00  0.19  0.00
  WS02003060WS02003069    1.00   0.00  0.00  0.00  0.98  0.02  0.00  0.00  0.07  0.00
  WS02003059WS02003060    1.00   0.00  0.00  0.00  1.00  0.00  0.00  0.00  0.01  0.00
  HS02004901HS02004770    1.00   0.05  0.00  0.00  0.95  0.00  0.00  0.00  0.00  0.00
  HS02004876HS02004881    1.00   0.02  0.00  0.00  0.98  0.00  0.00  0.00  0.00  0.00
  HS02004870HS02004876    1.00   0.01  0.00  0.00  0.99  0.00  0.00  0.00  0.95  0.00
  HS02004842HS02004848    1.00   0.00  0.05  0.00  0.95  0.00  0.00  0.00  0.58  0.00
  HS02004837HS02004842    1.00   0.00  0.00  0.00  0.99  0.01  0.00  0.00  0.11  0.00
  HS02004830HS02004837    1.00   0.00  0.00  0.00  1.00  0.00  0.00  0.00  0.99  0.00
  HS02004824HS02004830    1.00   0.00  0.00  0.00  1.00  0.00  0.00  0.00  0.00  0.00
  HS02004817HS02004824    1.00   0.00  0.00  0.00  1.00  0.00  0.00  0.00  1.00  0.00
  HS02004770HS02004777    1.00   0.00  0.05  0.00  0.95  0.00  0.00  0.00  0.03  0.00
  HS02004799HS02004480    1.00   0.00  0.03  0.00  0.95  0.00  0.02  0.00  0.00  0.00
  HS02004792HS02004799    1.00   0.00  0.00  0.00  0.99  0.01  0.00  0.00  0.98  0.00
  HS02004788HS02004792    1.00   0.00  0.00  0.00  0.99  0.01  0.00  0.00  0.98  0.00
  HS02004785HS02004788    1.00   0.00  0.00  0.00  1.00  0.00  0.00  0.00  0.00  0.00
  HS02004777HS02004785    1.00   0.00  0.00  0.00  1.00  0.00  0.00  0.00  0.12  0.00
  HS02004480HS02004478    1.00   0.05  0.00  0.00  0.61  0.00  0.00  0.34  0.00  0.00
  HS02004479HS02004480    1.00   0.03  0.00  0.00  0.97  0.00  0.00  0.00  0.12  0.00
  HS02004862HS02004870    1.00   0.00  0.00  0.00  1.00  0.00  0.00  0.00  0.04  0.00
  HS02004848HS02004852    1.00   0.05  0.00  0.00  0.95  0.00  0.00  0.00  0.77  0.00
  HS02004856HS02004862    1.00   0.00  0.05  0.00  0.95  0.00  0.00  0.00  0.83  0.00
  HS02004852HS02004856    1.00   0.05  0.00  0.00  0.95  0.00  0.00  0.00  0.86  0.00
  HS02004802HS02004478    1.00   0.05  0.00  0.00  0.95  0.00  0.00  0.00  0.03  0.00
  HS02004478WS02006287    1.00   0.05  0.00  0.00  0.68  0.26  0.00  0.00  0.68  0.00
  HS02004817HS02004807    1.00   0.00  0.05  0.00  0.95  0.00  0.00  0.00  0.01  0.00
  HS02004807HS02004802    1.00   0.05  0.00  0.00  0.95  0.00  0.00  0.00  0.00  0.00
  YS02001759YS02001757    1.00   0.00  0.00  0.00  1.00  0.00  0.00  0.00  0.16  0.00
  YS02001762YS02001759    1.00   0.00  0.00  0.00  1.00  0.00  0.00  0.00  0.03  0.00
  YS02001765YS02001762    1.00   0.00  0.00  0.00  1.00  0.00  0.00  0.00  0.14  0.00
  YS02001770YS02001767    1.00   0.00  0.00  0.00  1.00  0.00  0.00  0.00  0.00  0.00
  YS02001774YS02001770    1.00   0.00  0.04  0.00  0.95  0.00  0.00  0.00  0.03  0.00
  YS02001779YS02001774    1.00   0.00  0.00  0.00  1.00  0.00  0.00  0.00  0.18  0.00
  YS02001649YS02001757    1.00   0.00  0.00  0.00  1.00  0.00  0.00  0.00  0.16  0.00
  YS02001767YS02001765    1.00   0.00  0.00  0.00  1.00  0.00  0.00  0.00  0.00  0.00
  YS02006561YS02001783    1.00   0.06  0.00  0.00  0.31  0.64  0.00  0.00  0.60  0.00
  YS02001783YS02001784    1.00   0.00  0.06  0.00  0.94  0.00  0.00  0.00  0.00  0.00
  YS02001784YS02001785    1.00   0.00  0.00  0.00  1.00  0.00  0.00  0.00  0.17  0.00
  YS02001788YS02001790    1.00   0.00  0.00  0.00  0.38  0.62  0.00  0.00  0.52  0.00
  YS02001790YS02001791    1.00   0.00  0.00  0.00  0.35  0.65  0.00  0.00  0.53  0.00
  YS02001791YS02001793    1.00   0.00  0.00  0.00  0.35  0.65  0.00  0.00  0.01  0.00
  YS02001910YS02001907    1.00   0.00  0.00  0.00  0.97  0.00  0.00  0.03  0.12  0.00
  YS02001786YS02001788    1.00   0.00  0.00  0.00  0.37  0.63  0.00  0.00  0.00  0.00
  YS02001915YS02001910    1.00   0.00  0.00  0.00  0.99  0.01  0.00  0.00  0.16  0.00
  YS02001918YS02001915    1.00   0.00  0.01  0.00  0.98  0.02  0.00  0.00  0.60  0.00
  YS02001923YS02001920    1.00   0.00  0.00  0.00  1.00  0.00  0.00  0.00  0.93  0.00
  YS02001926YS02001923    1.00   0.00  0.04  0.00  0.00  0.00  0.96  0.00  0.00  0.00
  YS02001929YS02001926    1.00   0.00  0.05  0.00  0.95  0.00  0.00  0.00  0.87  0.00
  YS02001920YS02001918    1.00   0.00  0.01  0.00  0.99  0.00  0.00  0.00  0.00  0.00
  YS02001629YS02163301    1.00   0.05  0.00  0.00  0.95  0.00  0.00  0.00  0.00  0.00
  YS02001619YS02001622    1.00   0.05  0.00  0.00  0.95  0.00  0.00  0.00  0.00  0.00
  YS02001622YS02001625    1.00   0.05  0.00  0.00  0.95  0.00  0.00  0.00  0.04  0.00
  YS02001625YS02001629    1.00   0.05  0.01  0.00  0.93  0.00  0.02  0.00  0.00  0.00
  YS02163301YS02001633    1.00   0.00  0.05  0.00  0.95  0.00  0.00  0.00  0.00  0.00
  YS02163601YS02164001    1.00   0.00  0.04  0.00  0.96  0.00  0.00  0.00  0.00  0.00
  YS02164001YS02001641    1.00   0.01  0.03  0.00  0.96  0.00  0.00  0.00  0.06  0.00
  YS02001641YS02001644    1.00   0.00  0.01  0.00  0.99  0.00  0.00  0.00  0.00  0.00
  YS02001647YS02001649    1.00   0.00  0.05  0.00  0.95  0.00  0.00  0.00  0.01  0.00
  YS02006553YS02006556    1.00   0.02  0.00  0.00  0.98  0.00  0.00  0.00  0.03  0.00
  YS02006556YS02006558    1.00   0.00  0.00  0.00  1.00  0.00  0.00  0.00  0.00  0.00
  YSB6556YSB1171          1.00   0.03  0.02  0.00  0.96  0.00  0.00  0.00  0.00  0.00
  YS02001907YS02006553    1.00   0.00  0.02  0.00  0.97  0.00  0.00  0.00  0.00  0.00
  YS02006558YS02006561    1.00   0.06  0.00  0.00  0.07  0.87  0.00  0.00  0.52  0.00
  YS02001633YS02163601    1.00   0.00  0.01  0.00  0.99  0.00  0.00  0.00  0.15  0.00
  YS02001644YS02001647    1.00   0.00  0.05  0.00  0.95  0.00  0.00  0.00  0.00  0.00
  YS02001745YS02001748    1.00   0.00  0.00  0.00  0.88  0.01  0.00  0.10  0.04  0.00
  YS02001748YS02001751    1.00   0.00  0.00  0.00  0.97  0.03  0.00  0.00  0.14  0.00
  YS02001751YS02001754    1.00   0.00  0.00  0.00  0.94  0.00  0.00  0.06  0.02  0.00
  YS02001754YS02001757    1.00   0.00  0.00  0.00  0.99  0.01  0.00  0.00  0.18  0.00
  YS02001882YS02001884    1.00   0.05  0.00  0.00  0.95  0.00  0.00  0.00  0.00  0.00
  YS02001884YS02001887    1.00   0.03  0.01  0.00  0.96  0.00  0.00  0.00  0.00  0.00
  YS02001890YS02001895    1.00   0.00  0.05  0.00  0.95  0.00  0.00  0.00  0.00  0.00
  YS02001895YS02001898    1.00   0.05  0.00  0.00  0.94  0.00  0.01  0.00  0.00  0.00
  YS02001898YS02001901    1.00   0.05  0.00  0.00  0.95  0.00  0.00  0.00  0.01  0.00
  YS02001901YS02001904    1.00   0.05  0.00  0.00  0.95  0.00  0.00  0.00  0.00  0.00
  YS02001904YS02001907    1.00   0.00  0.05  0.00  0.95  0.00  0.00  0.00  0.00  0.00
  YS02001887YS02001890    1.00   0.00  0.00  0.00  0.97  0.00  0.02  0.00  0.00  0.00
  YS02001652YS02001649    1.00   0.00  0.00  0.00  1.00  0.00  0.00  0.00  0.16  0.00
  YS02001655YS02001652    1.00   0.00  0.00  0.00  0.94  0.00  0.00  0.06  0.02  0.00
  YS02001658YS02001655    1.00   0.00  0.05  0.00  0.93  0.03  0.00  0.00  0.05  0.00
  YS02001661YS02001658    1.00   0.05  0.00  0.00  0.88  0.07  0.00  0.00  0.04  0.00
  YS02001664YS02001661    1.00   0.05  0.00  0.00  0.85  0.11  0.00  0.00  0.20  0.00
  YSB1154YSB6556          1.00   0.04  0.00  0.00  0.96  0.00  0.00  0.00  0.02  0.00
  YSB1174YSB1171          1.00   0.03  0.01  0.00  0.96  0.00  0.00  0.00  0.00  0.00
  YSB1171HS02004479       1.00   0.03  0.00  0.00  0.97  0.00  0.00  0.00  0.10  0.00
  HS02004881HS02006253    1.00   0.03  0.00  0.00  0.20  0.05  0.00  0.72  0.19  0.00
  YS02001793JiankangQianchi    1.00   0.00  0.00  0.00  0.58  0.41  0.00  0.00  0.19  0.00
  YS02001757CaochengTiaoxuchi    1.00   0.00  0.07  0.00  0.93  0.00  0.00  0.00  0.00  0.00
  WSF200WS02003060        1.00   0.00  0.07  0.00  0.91  0.02  0.00  0.00  0.55  0.00
  1                       1.00   0.00  0.00  0.00  0.00  1.00  0.00  0.00  0.42  0.00
  2                       1.00   1.00  0.00  0.00  0.00  0.00  0.00  0.00  0.00  0.00
  3                       1.00   0.06  0.00  0.00  0.00  0.94  0.00  0.00  0.19  0.00
  4                       1.00   1.00  0.00  0.00  0.00  0.00  0.00  0.00  0.00  0.00
  
  
  *************************
  Conduit Surcharge Summary
  *************************
  
  ----------------------------------------------------------------------------
                                                           Hours        Hours 
                         --------- Hours Full --------   Above Full   Capacity
  Conduit                Both Ends  Upstream  Dnstream   Normal Flow   Limited
  ----------------------------------------------------------------------------
  WS02006229WS02006228        0.98      1.05      0.98      2.12         0.98
  WS02006256WS02006235        6.29      6.29      7.22      5.88         0.01
  WS02006249WS02006248        0.01      0.01      0.01      0.72         0.01
  WS02006247WS02006245        0.01      0.01      0.01      1.73         0.01
  WS02006235WS02006234        0.01      0.01      0.01      6.14         0.01
  WS02006234WS02006232        0.01      0.01      0.14      0.01         0.01
  WS02006232WS02006231        0.01      0.01      0.14      0.01         0.01
  WS02006231WS02006230        0.01      0.01      0.01      6.37         0.01
  WS02006230WS02006229        1.46      1.77      1.46      6.46         1.46
  WS02006228WS02006109        1.01      1.26      1.01      3.93         1.01
  WS02006112WS02006115        0.01      0.01      0.20      0.01         0.01
  WS02006111WS02006112        0.01      0.01      2.20      0.01         0.01
  WS02006110WS02006113        0.01      0.01      1.13      0.01         0.01
  WS02006109WS02006110        0.03      0.03      1.26      0.04         0.01
  WS02004405WS02004406        0.01      0.01      0.01      0.14         0.01
  WS02004404WS02004405        0.01      0.01      0.01      6.25         0.01
  WS02003072WS02003073        0.01      0.01      0.01      5.84         0.01
  YS02001759YS02001757        5.97      5.97      6.03      0.01         0.01
  YS02001762YS02001759        5.94      5.94      5.97      0.01         0.01
  YS02001765YS02001762        5.92      5.92      5.94      0.01         0.01
  YS02001770YS02001767        5.90      5.90      5.90      0.01         0.68
  YS02001774YS02001770        5.88      5.88      5.93      0.01         0.01
  YS02001779YS02001774        5.69      5.69      5.93      0.01         0.01
  YS02001649YS02001757        5.95      5.95      6.03      0.01         0.01
  YS02001767YS02001765        5.90      5.90      5.92      0.01         0.01
  YS02006561YS02001783        0.01      0.01      1.02      0.01         0.01
  YS02001783YS02001784        1.02      1.02      1.09      0.31         0.29
  YS02001784YS02001785        1.02      1.09      1.02      1.90         1.02
  YS02001788YS02001790        1.01      1.01      1.91      0.01         0.01
  YS02001790YS02001791        1.91      1.91      1.94      0.01         0.01
  YS02001791YS02001793        1.94      1.94      2.05      0.01         0.01
  YS02001910YS02001907        0.21      0.21      1.24      0.01         0.01
  YS02001786YS02001788        1.01      1.02      1.01      1.47         1.00
  YS02001915YS02001910        0.01      0.01      0.21      0.01         0.01
  YS02001629YS02163301        5.88      5.88      5.89      0.01         0.01
  YS02001619YS02001622        5.43      5.43      5.52      0.01         0.02
  YS02001622YS02001625        5.52      5.52      5.84      0.01         0.01
  YS02001625YS02001629        5.46      5.46      5.84      0.01         0.01
  YS02163301YS02001633        5.89      5.89      5.92      0.01         0.01
  YS02163601YS02164001        5.92      5.92      5.95      0.01         0.01
  YS02164001YS02001641        5.92      5.92      5.93      0.01         0.02
  YS02001641YS02001644        5.93      5.93      5.93      0.74         1.07
  YS02001647YS02001649        5.81      5.81      5.95      0.01         0.01
  YS02006553YS02006556        0.68      0.68      1.33      0.01         0.01
  YS02006556YS02006558        1.02      1.02      1.42      0.01         0.01
  YS02001907YS02006553        1.92      1.92      2.14      0.01         0.01
  YS02006558YS02006561        0.01      0.60      0.01      1.76         0.01
  YS02001633YS02163601        5.91      5.91      5.95      0.01         0.01
  YS02001644YS02001647        5.81      5.81      5.93      0.01         0.01
  YS02001745YS02001748        0.01      0.01      5.22      0.01         0.01
  YS02001748YS02001751        5.28      5.28      5.47      0.01         0.01
  YS02001751YS02001754        5.47      5.47      5.72      0.01         0.01
  YS02001754YS02001757        5.79      5.79      6.03      0.01         0.01
  YS02001890YS02001895        0.01      0.01      0.26      0.01         0.01
  YS02001904YS02001907        0.01      0.01      1.36      0.01         0.01
  YS02001887YS02001890        0.03      0.03      0.15      0.01         0.01
  YS02001652YS02001649        5.83      5.83      5.95      0.01         0.01
  YS02001655YS02001652        5.49      5.49      5.76      0.01         0.01
  YS02001658YS02001655        5.25      5.25      5.49      0.01         0.01
  YS02001661YS02001658        0.19      0.19      5.25      0.01         0.01
  YS02001664YS02001661        0.01      0.01      1.13      0.01         0.01
  YS02001793JiankangQianchi        2.02      2.02      3.38      0.01         0.01
  YS02001757CaochengTiaoxuchi        5.19      5.19      6.03      0.01         0.01
  
  
  ***************
  Pumping Summary
  ***************
  
  ---------------------------------------------------------------------------------------------------------
                                                  Min       Avg       Max     Total     Power    % Time Off
                        Percent   Number of      Flow      Flow      Flow    Volume     Usage    Pump Curve
  Pump                 Utilized   Start-Ups       LPS       LPS       LPS  10^6 ltr     Kw-hr    Low   High
  ---------------------------------------------------------------------------------------------------------
  CC-Pump-1                0.00           0      0.00      0.00      0.00     0.000      0.00    0.0    0.0
  CC-Pump-2               47.08           9      0.00    111.67    200.00     1.440      1.17    0.0    9.3
  JK-Pump-1               40.41           5      0.00    125.63    300.00     1.085     18.92    0.0    0.0
  JK-Pump-2              100.00           1      0.00    236.56    300.00     5.372     58.66    0.0    0.0
  XR-Pump-1              100.00           1      0.00     93.25     95.00     2.622     22.08    0.0    0.0
  XR-Pump-2              100.00           1      0.00     92.45     95.00     2.622     22.10    0.0    0.0
  XR-Pump-3                0.00           0      0.00      0.00      0.00     0.000      0.00    0.0    0.0
  XR-Pump-4              100.00           3      0.00     82.81     95.00     2.280     17.39    0.0    0.0
  

  Analysis begun on:  Tue Jan  4 22:13:38 2022
  Analysis ended on:  Tue Jan  4 22:13:42 2022
  Total elapsed time: 00:00:04