
  EPA STORM WATER MANAGEMENT MODEL - VERSION 5.1 (Build 5.3.0.dev0)
  --------------------------------------------------------------

  WARNING 04: minimum elevation drop used for Conduit WS02004404WS02004405
  WARNING 03: negative offset ignored for Link YS02001904YS02001907
  
  *********************************************************
  NOTE: The summary statistics displayed in this report are
  based on results found at every computational time step,  
  not just on results from each reporting time step.
  *********************************************************
  
  ****************
  Analysis Options
  ****************
  Flow Units ............... LPS
  Process Models:
    Rainfall/Runoff ........ YES
    RDII ................... NO
    Snowmelt ............... NO
    Groundwater ............ NO
    Flow Routing ........... YES
    Ponding Allowed ........ NO
    Water Quality .......... NO
  Infiltration Method ...... HORTON
  Flow Routing Method ...... DYNWAVE
  Surcharge Method ......... EXTRAN
  Starting Date ............ 08/28/2015 08:00:00
  Ending Date .............. 08/28/2015 15:50:00
  Antecedent Dry Days ...... 8.0
  Report Time Step ......... 00:01:00
  Wet Time Step ............ 00:01:00
  Dry Time Step ............ 00:01:00
  Routing Time Step ........ 5.00 sec
  Variable Time Step ....... YES
  Maximum Trials ........... 8
  Number of Threads ........ 4
  Head Tolerance ........... 0.001500 m
  
  
  **************************        Volume         Depth
  Runoff Quantity Continuity     hectare-m            mm
  **************************     ---------       -------
  Total Precipitation ......         5.556        12.164
  Evaporation Loss .........         0.000         0.000
  Infiltration Loss ........         1.427         3.124
  Surface Runoff ...........         3.072         6.726
  Final Storage ............         1.058         2.316
  Continuity Error (%) .....        -0.016
  
  
  **************************        Volume        Volume
  Flow Routing Continuity        hectare-m      10^6 ltr
  **************************     ---------     ---------
  Dry Weather Inflow .......         0.616         6.165
  Wet Weather Inflow .......         3.071        30.708
  Groundwater Inflow .......         0.000         0.000
  RDII Inflow ..............         0.000         0.000
  External Inflow ..........         0.102         1.024
  External Outflow .........         1.838        18.385
  Flooding Loss ............         1.402        14.024
  Evaporation Loss .........         0.000         0.000
  Exfiltration Loss ........         0.000         0.000
  Initial Stored Volume ....         0.076         0.761
  Final Stored Volume ......         0.640         6.405
  Continuity Error (%) .....        -0.406
  
  
  *************************
  Highest Continuity Errors
  *************************
  Node HS02004842 (16.24%)
  Node YS02001884 (11.30%)
  Node YSB1171 (3.12%)
  Node HS02004817 (2.99%)
  Node YS02001774 (2.74%)
  
  
  ***************************
  Time-Step Critical Elements
  ***************************
  Link WS02006252WS02006251 (48.31%)
  Link 3 (42.96%)
  Link WS02006238WS02006235 (2.43%)
  Link WS02006280WS02006229 (1.79%)
  
  
  ********************************
  Highest Flow Instability Indexes
  ********************************
  Link WS02006113WS02006111 (41)
  Link YS02163601YS02164001 (41)
  Link YS02163301YS02001633 (40)
  Link YS02001629YS02163301 (40)
  Link YS02001619YS02001622 (39)
  
  
  *************************
  Routing Time Step Summary
  *************************
  Minimum Time Step           :     0.14 sec
  Average Time Step           :     0.82 sec
  Maximum Time Step           :     5.00 sec
  Percent in Steady State     :    -0.00
  Average Iterations per Step :     4.55
  Percent Not Converging      :    20.74
  
  
  ***************************
  Subcatchment Runoff Summary
  ***************************
  
  ------------------------------------------------------------------------------------------------------------------------------
                            Total      Total      Total      Total     Imperv       Perv      Total       Total     Peak  Runoff
                           Precip      Runon       Evap      Infil     Runoff     Runoff     Runoff      Runoff   Runoff   Coeff
  Subcatchment                 mm         mm         mm         mm         mm         mm         mm    10^6 ltr      LPS
  ------------------------------------------------------------------------------------------------------------------------------
  sub0                      12.16       0.00       0.00       0.85      10.05       0.00      10.05        0.01     1.91   0.826
  sub1                      12.16       0.00       0.00       1.34       9.56       0.00       9.56        0.06    14.15   0.786
  sub2                      12.16       0.00       0.00       4.50       6.75       0.00       6.75        0.06    13.75   0.555
  sub3                      12.16       0.00       0.00       4.50       6.71       0.00       6.71        0.15    32.07   0.552
  sub4                      12.16       0.00       0.00       1.34       9.40       0.00       9.40        0.20    40.20   0.773
  sub5                      12.16       0.00       0.00       0.85       9.99       0.00       9.99        0.11    25.19   0.822
  sub7                      12.16       0.00       0.00       1.09       9.81       0.00       9.81        0.03     7.55   0.807
  sub8                      12.16       0.00       0.00       1.09       9.80       0.00       9.80        0.06    14.17   0.806
  sub9                      12.16       0.00       0.00       1.09       9.80       0.00       9.80        0.05    10.64   0.806
  sub10                     12.16       0.00       0.00       0.97       9.89       0.00       9.89        0.11    24.40   0.813
  sub11                     12.16       0.00       0.00       0.97       9.91       0.00       9.91        0.12    26.15   0.815
  sub12                     12.16       0.00       0.00       1.58       9.39       0.00       9.39        0.08    19.06   0.772
  sub14                     12.16       0.00       0.00       1.09       9.80       0.00       9.80        0.09    21.02   0.805
  sub15                     12.16       0.00       0.00       3.65       7.53       0.00       7.53        0.13    29.11   0.619
  sub16                     12.16       0.00       0.00       4.01       7.23       0.00       7.23        0.08    17.47   0.594
  sub17                     12.16       0.00       0.00       3.89       7.34       0.00       7.34        0.06    14.47   0.603
  sub22                     12.16       0.00       0.00       5.23       6.14       0.00       6.14        0.39    88.27   0.505
  sub23                     12.16       0.00       0.00       4.50       6.79       0.00       6.79        0.32    73.89   0.558
  sub60                     12.16       0.00       0.00       1.46       7.71       0.00       7.71        2.34   297.17   0.634
  sub61                     12.16       0.00       0.00       2.07       7.87       0.00       7.87        2.43   359.80   0.647
  sub62                     12.16       0.00       0.00       0.97       8.55       0.00       8.55        2.63   372.87   0.703
  sub63                     12.16       0.00       0.00       3.53       6.89       0.00       6.89        2.09   327.80   0.567
  sub64                     12.16       0.00       0.00       1.82       7.40       0.00       7.40        2.25   282.66   0.608
  sub65                     12.16       0.00       0.00       1.58       7.52       0.00       7.52        2.31   287.20   0.618
  sub66                     12.16       0.00       0.00       3.53       6.36       0.00       6.36        1.95   257.27   0.523
  sub67                     12.16       0.00       0.00       0.97       9.05       0.00       9.05        2.79   452.90   0.744
  sub68                     12.16       0.00       0.00       1.70       8.28       0.00       8.28        2.55   391.99   0.681
  sub69                     12.16       0.00       0.00       1.82       8.61       0.00       8.61        2.01   355.79   0.708
  sub70                     12.16       8.79       0.00       7.03      11.43       0.10      11.53        2.64   335.00   0.550
  sub71                     12.16       0.00       0.00       0.97       8.31       0.00       8.31        1.96   263.63   0.683
  sub72                     12.16       0.00       0.00       0.85       6.56       0.00       6.56        1.34   129.40   0.540
  sub73                     12.16      11.23       0.00       7.88      12.47       0.08      12.54        2.95   300.52   0.536
  sub74                     12.16       0.00       0.00       9.12       2.57       0.00       2.57        1.03   189.59   0.211
  
  
  ******************
  Node Depth Summary
  ******************
  
  ---------------------------------------------------------------------------------
                                 Average  Maximum  Maximum  Time of Max    Reported
                                   Depth    Depth      HGL   Occurrence   Max Depth
  Node                 Type       Meters   Meters   Meters  days hr:min      Meters
  ---------------------------------------------------------------------------------
  WS02001211           JUNCTION     0.64     0.79     5.63     0  03:38        0.79
  WS02001212           JUNCTION     0.37     0.50     5.56     0  03:37        0.50
  WS02001213           JUNCTION     0.61     0.74     5.51     0  03:37        0.74
  WS02003069           JUNCTION     0.44     0.57     5.16     0  02:53        0.57
  WS02003072           JUNCTION     0.50     0.63     5.00     0  02:54        0.63
  WS02003073           JUNCTION     0.30     0.39     4.45     0  02:54        0.39
  WS02003060           JUNCTION     0.39     0.50     5.44     0  02:53        0.50
  WS02003066           JUNCTION     0.24     0.33     5.88     0  03:06        0.33
  WS02003059           JUNCTION     0.67     0.79     5.48     0  03:36        0.79
  WS02003067           JUNCTION     0.58     0.75     6.07     0  03:06        0.75
  WS02004401           JUNCTION     0.69     0.98     6.98     0  03:04        0.98
  WS02004402           JUNCTION     0.72     1.00     6.96     0  03:04        1.00
  WS02004403           JUNCTION     0.74     1.00     6.93     0  03:04        1.00
  WS02004404           JUNCTION     0.81     1.06     6.91     0  03:04        1.06
  WS02004406           JUNCTION     0.82     1.04     6.87     0  03:04        1.04
  WS02004409           JUNCTION     0.50     0.76     6.53     0  03:05        0.76
  WS02004410           JUNCTION     0.52     0.77     6.49     0  03:05        0.77
  WS02004411           JUNCTION     0.54     0.77     6.45     0  03:05        0.77
  WS02004412           JUNCTION     0.55     0.77     6.41     0  03:05        0.77
  WS02004413           JUNCTION     0.71     0.92     6.39     0  03:06        0.92
  WS02004405           JUNCTION     0.81     1.05     6.90     0  03:04        1.05
  WS02006109           JUNCTION     0.77     1.11     7.73     0  03:02        1.10
  WS02006110           JUNCTION     0.76     1.02     7.60     0  03:02        1.01
  WS02006111           JUNCTION     0.22     0.38     7.08     0  03:02        0.37
  WS02006112           JUNCTION     0.86     1.22     7.10     0  03:03        1.20
  WS02006113           JUNCTION     0.35     0.51     7.41     0  03:03        0.51
  WS02006115           JUNCTION     0.58     0.90     7.04     0  03:04        0.90
  WS02006116           JUNCTION     0.66     0.97     7.01     0  03:03        0.97
  WS02006230           JUNCTION     0.75     1.18     7.92     0  03:01        1.18
  WS02006231           JUNCTION     0.50     0.84     7.96     0  03:01        0.83
  WS02006232           JUNCTION     0.63     0.96     8.00     0  03:01        0.95
  WS02006234           JUNCTION     0.55     0.87     8.03     0  03:01        0.87
  WS02006235           JUNCTION     0.58     0.89     8.06     0  03:01        0.89
  WS02006238           JUNCTION     0.60     0.92     8.07     0  03:00        0.92
  WS02006240           JUNCTION     0.49     0.82     8.11     0  03:00        0.82
  WS02006242           JUNCTION     0.55     0.87     8.14     0  03:00        0.87
  WS02006243           JUNCTION     0.42     0.76     8.18     0  03:00        0.76
  WS02006245           JUNCTION     0.40     0.72     8.21     0  03:00        0.72
  WS02006247           JUNCTION     0.41     0.74     8.24     0  02:30        0.74
  WS02006248           JUNCTION     0.36     0.65     8.24     0  03:00        0.65
  WS02006249           JUNCTION     0.39     0.66     8.26     0  03:00        0.66
  WS02006239           JUNCTION     0.55     0.88     8.08     0  03:00        0.87
  WS02006251           JUNCTION     0.38     0.71     8.38     0  03:00        0.71
  WS02006252           JUNCTION     0.33     0.59     8.83     0  02:39        0.59
  WS02006253           JUNCTION     0.40     0.74     8.39     0  03:00        0.74
  WS02006256           JUNCTION     1.04     2.35     9.28     0  00:00        1.21
  WS02004138           JUNCTION     0.14     0.19     7.44     0  03:32        0.19
  WS02004407           JUNCTION     0.23     0.33     6.64     0  03:04        0.33
  WS02006228           JUNCTION     0.78     1.18     7.83     0  03:01        1.17
  WS02006229           JUNCTION     0.75     1.19     7.88     0  03:01        1.19
  WS02006280           JUNCTION     0.07     0.19     8.46     0  03:02        0.19
  WS02006284           JUNCTION     0.38     0.55     8.95     0  03:02        0.55
  WS02006287           JUNCTION     0.11     0.28     9.24     0  03:01        0.28
  WSF200               JUNCTION     0.22     0.34     5.57     0  02:52        0.34
  HS02004901           JUNCTION     0.13     0.28    10.10     0  03:01        0.28
  HS02004881           JUNCTION     0.01     0.04     9.07     0  03:01        0.04
  HS02004876           JUNCTION     0.05     0.12     9.15     0  03:01        0.12
  HS02004870           JUNCTION     0.02     0.06     9.35     0  03:01        0.06
  HS02004862           JUNCTION     0.02     0.07     9.46     0  03:01        0.07
  HS02004856           JUNCTION     0.08     0.13     9.55     0  03:01        0.13
  HS02004852           JUNCTION     0.01     0.05     9.56     0  03:01        0.05
  HS02004848           JUNCTION     0.01     0.05     9.65     0  03:01        0.05
  HS02004842           JUNCTION     0.33     0.38     9.65     0  03:01        0.38
  HS02004837           JUNCTION     0.03     0.07     9.65     0  03:01        0.07
  HS02004830           JUNCTION     0.04     0.08     9.55     0  03:01        0.08
  HS02004824           JUNCTION     0.03     0.06     9.46     0  03:01        0.06
  HS02004817           JUNCTION     0.45     0.60     9.44     0  03:01        0.60
  HS02004807           JUNCTION     0.13     0.27     9.44     0  03:01        0.27
  HS02004802           JUNCTION     0.17     0.30     9.43     0  03:01        0.30
  HS02004799           JUNCTION     0.13     0.33     9.54     0  03:01        0.33
  HS02004792           JUNCTION     0.04     0.14     9.66     0  03:01        0.14
  HS02004788           JUNCTION     0.03     0.10    10.00     0  03:01        0.10
  HS02004785           JUNCTION     0.05     0.17    10.07     0  03:01        0.17
  HS02004777           JUNCTION     0.16     0.30    10.10     0  03:01        0.30
  HS02004770           JUNCTION     0.13     0.27    10.10     0  03:01        0.27
  HS02004480           JUNCTION     0.09     0.26     9.50     0  03:01        0.26
  HS02004479           JUNCTION     0.13     0.30     9.50     0  03:01        0.30
  HS02004478           JUNCTION     0.07     0.18     9.41     0  03:01        0.18
  YS02001745           JUNCTION     0.70     0.87     8.39     0  03:43        0.87
  YS02001748           JUNCTION     1.09     2.27     9.35     0  02:42        1.50
  YS02001751           JUNCTION     1.27     2.15     9.03     0  02:44        1.52
  YS02001754           JUNCTION     1.53     2.20     8.81     0  02:42        1.80
  YS02001762           JUNCTION     1.73     2.11     8.51     0  02:42        2.01
  YS02001765           JUNCTION     1.68     2.06     8.51     0  02:42        1.96
  YS02001767           JUNCTION     1.64     1.99     8.48     0  02:42        1.91
  YS02001770           JUNCTION     1.64     1.95     8.44     0  02:42        1.89
  YS02001774           JUNCTION     1.71     2.01     8.43     0  02:44        1.96
  YS02001779           JUNCTION     1.46     1.68     8.37     0  02:42        1.68
  YS02001882           JUNCTION     0.55     1.63     8.34     0  02:52        1.60
  YS02001884           JUNCTION     0.65     1.72     8.34     0  02:52        1.70
  YS02001759           JUNCTION     1.76     2.13     8.49     0  02:42        2.05
  YS02001887           JUNCTION     0.72     1.80     8.33     0  02:52        1.78
  YS02001890           JUNCTION     0.75     1.81     8.32     0  02:52        1.80
  YS02001898           JUNCTION     0.52     1.57     8.30     0  02:52        1.55
  YS02001901           JUNCTION     0.64     1.68     8.29     0  02:52        1.67
  YS02001904           JUNCTION     0.62     1.64     8.27     0  02:52        1.63
  YS02001907           JUNCTION     0.95     1.96     8.25     0  02:52        1.96
  YS02001910           JUNCTION     0.74     1.78     8.29     0  02:54        1.77
  YS02001915           JUNCTION     0.54     1.59     8.31     0  02:54        1.57
  YS02001918           JUNCTION     0.28     1.27     8.34     0  02:54        1.24
  YS02001619           JUNCTION     1.24     1.61     8.54     0  02:38        1.61
  YS02001629           JUNCTION     1.60     1.85     8.40     0  02:39        1.85
  YS02001641           JUNCTION     1.69     1.97     8.41     0  02:44        1.93
  YS02001644           JUNCTION     1.70     1.92     8.35     0  02:44        1.92
  YS02001652           JUNCTION     1.54     2.16     8.76     0  02:56        2.09
  YS02001655           JUNCTION     1.30     2.20     9.05     0  02:39        1.91
  YS02001920           JUNCTION     0.38     1.35     8.36     0  02:53        1.31
  YS02001923           JUNCTION     0.22     1.11     8.37     0  02:53        1.07
  YS02001926           JUNCTION     0.27     0.92     8.36     0  02:53        0.90
  YS02001929           JUNCTION     0.15     0.69     8.39     0  02:53        0.68
  YS02001658           JUNCTION     1.03     2.30     9.44     0  02:39        1.73
  YS02001661           JUNCTION     0.80     2.46     9.86     0  02:56        1.85
  YS02001664           JUNCTION     0.36     0.57     8.49     0  02:55        0.56
  YS02001622           JUNCTION     1.26     1.62     8.52     0  02:38        1.62
  YS02001633           JUNCTION     1.69     2.02     8.47     0  02:43        1.94
  YS02001649           JUNCTION     1.74     2.05     8.44     0  02:55        2.05
  YS02001757           JUNCTION     1.86     2.21     8.47     0  02:42        2.16
  YS02001895           JUNCTION     0.52     1.56     8.31     0  02:52        1.55
  YS02001625           JUNCTION     1.55     1.78     8.38     0  02:38        1.78
  YS02163301           JUNCTION     1.63     1.94     8.46     0  02:43        1.87
  YS02163601           JUNCTION     1.74     2.04     8.44     0  02:44        1.98
  YS02164001           JUNCTION     1.68     1.98     8.43     0  02:44        1.91
  YS02001647           JUNCTION     1.53     1.81     8.42     0  02:39        1.80
  YSB1154              JUNCTION     0.27     0.45     9.51     0  03:01        0.45
  YSB6556              JUNCTION     0.16     0.34     9.51     0  03:01        0.34
  YSB1174              JUNCTION     0.22     0.40     9.51     0  03:01        0.40
  YSB1171              JUNCTION     0.42     0.60     9.51     0  03:01        0.60
  YS02006553           JUNCTION     0.95     1.96     8.25     0  02:59        1.96
  YS02006561           JUNCTION     0.32     1.09     7.75     0  02:52        1.07
  YS02006556           JUNCTION     0.92     1.92     8.23     0  03:00        1.91
  YS02006558           JUNCTION     0.96     1.96     8.23     0  02:59        1.95
  YS02001783           JUNCTION     0.56     1.48     7.62     0  02:52        1.46
  YS02001784           JUNCTION     0.59     1.84     7.91     0  02:37        1.41
  YS02001786           JUNCTION     0.54     1.89     7.92     0  02:37        1.25
  YS02001788           JUNCTION     0.48     2.28     8.26     0  02:37        1.12
  YS02001790           JUNCTION     0.62     1.96     7.60     0  02:36        1.33
  YS02001791           JUNCTION     0.63     1.67     7.14     0  02:37        1.31
  YS02001793           JUNCTION     0.90     2.47     7.30     0  02:34        1.84
  WS02004139           JUNCTION     0.58     0.73     5.64     0  03:38        0.73
  WSC                  OUTFALL      0.30     0.39     1.06     0  02:55        0.39
  3                    OUTFALL      0.09     0.23     6.23     0  00:00        0.20
  4                    OUTFALL      0.02     0.16     7.16     0  03:00        0.16
  5                    OUTFALL      0.00     0.00     5.00     0  00:00        0.00
  JK-storage           STORAGE      3.49     5.80     6.60     0  02:37        5.80
  CC-storage           STORAGE      1.07     1.38     8.38     0  03:43        1.38
  XR-storage           STORAGE      7.33     7.72     5.72     0  02:30        7.72
  
  
  *******************
  Node Inflow Summary
  *******************
  
  -------------------------------------------------------------------------------------------------
                                  Maximum  Maximum                  Lateral       Total        Flow
                                  Lateral    Total  Time of Max      Inflow      Inflow     Balance
                                   Inflow   Inflow   Occurrence      Volume      Volume       Error
  Node                 Type           LPS      LPS  days hr:min    10^6 ltr    10^6 ltr     Percent
  -------------------------------------------------------------------------------------------------
  WS02001211           JUNCTION      7.35   387.77     0  03:40       0.207        6.29       0.388
  WS02001212           JUNCTION      0.00   387.96     0  03:40           0        6.26       0.204
  WS02001213           JUNCTION      0.00   388.24     0  03:40           0        6.25       0.253
  WS02003069           JUNCTION      0.32   909.29     0  02:53     0.00902        14.4       0.144
  WS02003072           JUNCTION      0.00   908.66     0  02:53           0        14.3       0.190
  WS02003073           JUNCTION      1.82   910.23     0  02:54      0.0514        14.4       0.207
  WS02003060           JUNCTION     16.53   909.03     0  02:52       0.466        14.4       0.140
  WS02003066           JUNCTION      0.00   669.47     0  03:06           0        7.71       0.051
  WS02003059           JUNCTION      0.00   388.84     0  03:41           0        6.24       0.503
  WS02003067           JUNCTION      0.00   669.32     0  03:06           0        7.72       0.108
  WS02004401           JUNCTION      0.00   671.83     0  03:03           0        7.93       0.234
  WS02004402           JUNCTION      0.00   671.77     0  03:03           0        7.91       0.225
  WS02004403           JUNCTION      0.00   671.16     0  03:04           0        7.89       0.207
  WS02004404           JUNCTION      0.16   671.28     0  03:04     0.00457        7.88       0.159
  WS02004406           JUNCTION      0.00   671.60     0  03:04           0        7.85       0.388
  WS02004409           JUNCTION      0.00   670.94     0  03:04           0        7.81       0.171
  WS02004410           JUNCTION      0.00   670.39     0  03:04           0         7.8       0.200
  WS02004411           JUNCTION      0.00   669.83     0  03:05           0        7.78       0.209
  WS02004412           JUNCTION      0.00   669.62     0  03:05           0        7.77       0.231
  WS02004413           JUNCTION      0.00   669.35     0  03:05           0        7.75       0.351
  WS02004405           JUNCTION      0.04   671.37     0  03:04     0.00107        7.87       0.241
  WS02006109           JUNCTION      1.23   663.01     0  03:02      0.0347        7.97       0.245
  WS02006110           JUNCTION      0.00   662.99     0  03:02           0        7.95       0.207
  WS02006111           JUNCTION      0.00   693.43     0  03:03           0        7.92       0.040
  WS02006112           JUNCTION     14.47   674.83     0  03:01      0.0629        7.98       0.309
  WS02006113           JUNCTION      0.00   664.16     0  03:02           0        7.93       0.088
  WS02006115           JUNCTION      0.00   675.98     0  03:03           0        7.96       0.208
  WS02006116           JUNCTION      0.00   674.32     0  03:03           0        7.94       0.206
  WS02006230           JUNCTION     10.28   398.94     0  06:02        0.29        6.08       0.183
  WS02006231           JUNCTION      0.00   390.79     0  06:02           0        5.79       0.127
  WS02006232           JUNCTION      0.00   390.91     0  06:01           0        5.81       0.224
  WS02006234           JUNCTION      0.00   392.56     0  06:01           0        5.81       0.080
  WS02006235           JUNCTION      0.00   392.68     0  06:01           0        5.84       0.138
  WS02006238           JUNCTION      0.00   309.42     0  07:02           0        3.88       0.100
  WS02006240           JUNCTION      0.00   313.57     0  07:01           0        3.87       0.144
  WS02006242           JUNCTION      0.00   322.53     0  03:51           0        3.87       0.161
  WS02006243           JUNCTION      0.00   332.92     0  03:51           0        3.85      -0.356
  WS02006245           JUNCTION      0.00   340.30     0  03:51           0        3.86       0.171
  WS02006247           JUNCTION      0.00   346.87     0  03:50           0        3.86       0.012
  WS02006248           JUNCTION      0.00   352.70     0  03:50           0        3.85      -0.069
  WS02006249           JUNCTION      0.00   475.31     0  03:00           0        4.32       0.103
  WS02006239           JUNCTION      0.00   310.34     0  07:02           0        3.87       0.124
  WS02006251           JUNCTION      0.08   476.14     0  03:00     0.00217        4.35      -0.002
  WS02006252           JUNCTION      0.00   400.00     0  02:30           0        3.95       0.002
  WS02006253           JUNCTION      1.91    81.00     0  03:01     0.00814        0.39      -0.036
  WS02006256           JUNCTION      0.00   600.00     0  00:00           0        5.57       0.038
  WS02004138           JUNCTION      0.00   380.00     0  03:30           0         6.1       0.035
  WS02004407           JUNCTION      0.00   671.50     0  03:04           0        7.82       0.076
  WS02006228           JUNCTION      0.00   661.87     0  03:02           0        7.94       0.161
  WS02006229           JUNCTION      0.00   660.49     0  03:02           0        7.95       0.131
  WS02006280           JUNCTION      0.00   375.54     0  03:02           0        1.89       0.004
  WS02006284           JUNCTION      0.10   375.54     0  03:02      0.0027        1.89       0.064
  WS02006287           JUNCTION      0.00   375.27     0  03:01           0        1.89       0.038
  WSF200               JUNCTION      0.00   669.51     0  03:06           0        7.71       0.046
  HS02004901           JUNCTION     17.47    17.47     0  03:01      0.0757      0.0759       2.380
  HS02004881           JUNCTION      7.55    79.19     0  03:01      0.0331       0.357       0.078
  HS02004876           JUNCTION     14.15    72.10     0  03:01      0.0636       0.324       0.171
  HS02004870           JUNCTION     14.17    58.27     0  03:01      0.0626       0.261       0.043
  HS02004862           JUNCTION     13.95    44.46     0  03:01      0.0685       0.198       0.089
  HS02004856           JUNCTION     10.64    30.79     0  03:01      0.0471       0.131       1.117
  HS02004852           JUNCTION      0.00    20.44     0  03:01           0       0.084       0.069
  HS02004848           JUNCTION     32.07    32.07     0  03:01       0.151       0.151       0.033
  HS02004842           JUNCTION      0.00    11.42     0  03:01           0      0.0801      19.389
  HS02004837           JUNCTION     30.75    41.91     0  03:01       0.288       0.355       0.230
  HS02004830           JUNCTION      0.15    41.84     0  03:01     0.00423       0.346       0.358
  HS02004824           JUNCTION     40.25    81.79     0  03:01       0.197       0.542       0.100
  HS02004817           JUNCTION      0.60    82.18     0  03:01      0.0169       0.558       3.079
  HS02004807           JUNCTION     26.15   107.24     0  03:01       0.115       0.657       0.656
  HS02004802           JUNCTION      0.00   106.49     0  03:01           0       0.653       0.618
  HS02004799           JUNCTION     21.02   227.51     0  03:01      0.0932        1.06       0.236
  HS02004792           JUNCTION     88.55   207.32     0  03:01       0.396       0.966       0.043
  HS02004788           JUNCTION     30.78   119.37     0  03:01       0.177       0.571       0.068
  HS02004785           JUNCTION      0.15    89.79     0  03:01     0.00423       0.396       0.125
  HS02004777           JUNCTION      0.03    90.24     0  03:01    0.000846       0.397       1.326
  HS02004770           JUNCTION     73.89    90.93     0  03:01       0.324       0.398       0.787
  HS02004480           JUNCTION      0.00   269.27     0  03:01           0        1.25       0.099
  HS02004479           JUNCTION      0.00    42.82     0  03:02           0       0.204       0.360
  HS02004478           JUNCTION      0.00   375.17     0  03:01           0        1.89       0.018
  YS02001745           JUNCTION    297.18   404.42     0  02:42        2.34        2.35       0.489
  YS02001748           JUNCTION      0.04   598.13     0  02:42     0.00127        2.34       0.968
  YS02001751           JUNCTION      0.01   395.00     0  02:34     0.00031         2.3       1.037
  YS02001754           JUNCTION      0.26   308.19     0  03:01     0.00733        2.29       1.083
  YS02001762           JUNCTION      0.00   342.43     0  02:55           0        1.72       1.223
  YS02001765           JUNCTION      0.00   342.31     0  02:55           0        1.73       1.409
  YS02001767           JUNCTION      0.54   342.32     0  02:55      0.0151        1.75       2.066
  YS02001770           JUNCTION    373.02   373.02     0  03:01        2.63        2.65       1.190
  YS02001774           JUNCTION      0.00   244.45     0  03:26           0       0.916       2.813
  YS02001779           JUNCTION      0.01   244.40     0  03:26    0.000141       0.885       1.767
  YS02001882           JUNCTION      0.00    30.82     0  02:46           0      0.0175      14.332
  YS02001884           JUNCTION      0.00    60.39     0  02:39           0      0.0538      12.740
  YS02001759           JUNCTION    359.84   676.42     0  02:56        2.43         4.1       0.560
  YS02001887           JUNCTION    453.35   453.54     0  03:01         2.8        2.83       0.300
  YS02001890           JUNCTION      0.00   453.48     0  03:01           0        2.79       0.329
  YS02001898           JUNCTION      0.00   453.50     0  03:01           0        2.77       0.118
  YS02001901           JUNCTION      0.00   453.66     0  03:01           0        2.77       0.246
  YS02001904           JUNCTION      0.00   453.58     0  03:01           0        2.77       0.226
  YS02001907           JUNCTION      0.00   874.61     0  02:59           0        6.12       0.392
  YS02001910           JUNCTION      0.00   447.95     0  02:54           0        3.37       0.351
  YS02001915           JUNCTION    263.65   447.78     0  02:54        1.96        3.39       0.177
  YS02001918           JUNCTION      0.00   213.02     0  02:54           0        1.44       0.127
  YS02001619           JUNCTION    257.27   257.27     0  03:01        1.95        1.95       0.618
  YS02001629           JUNCTION      0.00   208.55     0  02:50           0        1.64       1.769
  YS02001641           JUNCTION      0.00   442.38     0  02:50           0        3.85       0.549
  YS02001644           JUNCTION    282.70   965.67     0  03:25        2.25        8.42       0.312
  YS02001652           JUNCTION      0.00   375.59     0  03:01           0        2.04       1.151
  YS02001655           JUNCTION      0.15   375.72     0  03:01     0.00434        2.06       1.235
  YS02001920           JUNCTION      2.87   213.04     0  02:54      0.0809        1.43       0.207
  YS02001923           JUNCTION      0.04   230.27     0  02:55     0.00106        1.34       0.049
  YS02001926           JUNCTION      0.05   198.14     0  02:54     0.00147        1.34       0.248
  YS02001929           JUNCTION    129.40   129.40     0  03:01        1.34        1.34       0.040
  YS02001658           JUNCTION      0.00   635.09     0  02:39           0        2.09       1.112
  YS02001661           JUNCTION      0.00   696.81     0  02:55           0        2.77      -0.092
  YS02001664           JUNCTION    327.80   355.49     0  02:55        2.09        2.77       0.281
  YS02001622           JUNCTION      0.00   257.54     0  03:01           0        1.94       1.658
  YS02001633           JUNCTION    287.40   442.99     0  02:50        2.32        3.91       0.824
  YS02001649           JUNCTION      0.00   943.70     0  02:50           0        5.37       0.695
  YS02001757           JUNCTION      0.00  1794.33     0  02:51           0        9.35       0.996
  YS02001895           JUNCTION      0.00   453.58     0  03:01           0        2.78       0.175
  YS02001625           JUNCTION      0.00   257.32     0  03:01           0         1.9       2.046
  YS02163301           JUNCTION      0.00   210.78     0  02:39           0        1.61       1.493
  YS02163601           JUNCTION      0.11   443.05     0  02:50      0.0031        3.87       0.781
  YS02164001           JUNCTION      0.00   442.92     0  02:50           0        3.85       0.518
  YS02001647           JUNCTION      0.00   673.66     0  02:50           0        4.35       0.655
  YSB1154              JUNCTION     25.19    25.19     0  03:01       0.113       0.114       1.285
  YSB6556              JUNCTION      0.00    24.91     0  03:01           0       0.115       1.100
  YSB1174              JUNCTION     19.06    19.06     0  03:01      0.0821      0.0827       1.581
  YSB1171              JUNCTION      0.00    43.19     0  03:01           0       0.203       3.220
  YS02006553           JUNCTION      0.00   666.89     0  03:17           0         5.9       0.262
  YS02006561           JUNCTION      0.00   964.00     0  02:59           0        8.42       0.007
  YS02006556           JUNCTION      0.00   666.98     0  03:17           0         5.9       0.190
  YS02006558           JUNCTION    392.87   964.45     0  03:00        2.57        8.45       0.064
  YS02001783           JUNCTION      0.00   963.97     0  03:00           0        8.42       0.030
  YS02001784           JUNCTION      1.06   965.09     0  03:01      0.0299        8.44       0.045
  YS02001786           JUNCTION      0.06   965.11     0  03:00     0.00159        8.44       0.041
  YS02001788           JUNCTION      0.07   965.17     0  03:00       0.002        8.44       0.024
  YS02001790           JUNCTION      0.15   965.28     0  03:00     0.00437        8.44       0.030
  YS02001791           JUNCTION      0.00   965.42     0  03:00           0        8.44       0.015
  YS02001793           JUNCTION      0.00   965.43     0  03:00           0        8.44       0.002
  WS02004139           JUNCTION      0.32   380.32     0  03:32     0.00905        6.11       0.383
  WSC                  OUTFALL       0.00   909.90     0  02:55           0        14.3       0.000
  3                    OUTFALL       0.00   597.65     0  00:00           0        3.58       0.000
  4                    OUTFALL       0.00   229.47     0  03:00           0       0.461       0.000
  5                    OUTFALL       0.00     0.00     0  00:00           0           0       0.000 ltr
  JK-storage           STORAGE       0.00   965.50     0  03:00           0        8.59      -1.409
  CC-storage           STORAGE       0.00  1794.30     0  02:51           0        7.87       0.666
  XR-storage           STORAGE     690.11   690.11     0  03:01        9.61        10.2       0.001
  
  
  **********************
  Node Surcharge Summary
  **********************
  
  Surcharging occurs when water rises above the top of the highest conduit.
  ---------------------------------------------------------------------
                                               Max. Height   Min. Depth
                                   Hours       Above Crown    Below Rim
  Node                 Type      Surcharged         Meters       Meters
  ---------------------------------------------------------------------
  WS02004402           JUNCTION        0.01          0.002        1.738
  WS02004403           JUNCTION        0.03          0.003        2.027
  WS02004404           JUNCTION        0.65          0.065        2.715
  WS02004406           JUNCTION        0.48          0.035        2.415
  WS02004405           JUNCTION        0.61          0.051        2.749
  WS02006109           JUNCTION        1.98          0.290        1.530
  WS02006110           JUNCTION        1.01          0.105        1.745
  WS02006112           JUNCTION        1.22          0.218        1.462
  WS02006230           JUNCTION        0.65          0.098        1.472
  WS02006231           JUNCTION        0.69          0.125        1.405
  WS02006232           JUNCTION        2.05          0.258        1.222
  WS02006234           JUNCTION        0.81          0.149        1.091
  WS02006235           JUNCTION        1.35          0.184        1.106
  WS02006238           JUNCTION        1.67          0.204        1.226
  WS02006240           JUNCTION        0.70          0.108        1.282
  WS02006242           JUNCTION        1.01          0.144        0.676
  WS02006243           JUNCTION        0.45          0.046        0.724
  WS02006245           JUNCTION        0.05          0.010        0.840
  WS02006247           JUNCTION        0.10          0.034        0.726
  WS02006239           JUNCTION        0.87          0.136        1.154
  WS02006252           JUNCTION        1.63          0.193        0.907
  WS02006256           JUNCTION        0.01          1.050        0.000
  WS02006228           JUNCTION        1.88          0.349        1.851
  YS02001748           JUNCTION        5.04          1.190        0.000
  YS02001751           JUNCTION        5.20          1.147        0.053
  YS02001754           JUNCTION        5.41          1.150        0.000
  YS02001762           JUNCTION        5.64          1.113        0.037
  YS02001765           JUNCTION        5.61          1.055        0.045
  YS02001767           JUNCTION        5.58          0.994        0.036
  YS02001770           JUNCTION        5.57          0.920        0.000
  YS02001774           JUNCTION        5.63          1.008        0.042
  YS02001779           JUNCTION        5.41          0.680        0.000
  YS02001882           JUNCTION        0.79          0.625        0.205
  YS02001884           JUNCTION        0.83          0.661        0.209
  YS02001759           JUNCTION        5.66          1.129        0.081
  YS02001887           JUNCTION        0.92          0.745        0.205
  YS02001890           JUNCTION        0.95          0.760        0.000
  YS02001898           JUNCTION        0.75          0.538        0.202
  YS02001901           JUNCTION        0.88          0.677        0.193
  YS02001904           JUNCTION        0.86          0.639        0.211
  YS02001907           JUNCTION        1.48          0.950        0.000
  YS02001910           JUNCTION        1.00          0.780        0.320
  YS02001915           JUNCTION        0.78          0.592        0.408
  YS02001918           JUNCTION        0.53          0.272        0.538
  YS02001619           JUNCTION        5.21          0.610        0.000
  YS02001629           JUNCTION        5.22          0.470        0.000
  YS02001641           JUNCTION        5.62          0.971        0.129
  YS02001644           JUNCTION        5.62          0.920        0.000
  YS02001652           JUNCTION        5.43          1.130        0.000
  YS02001655           JUNCTION        5.23          1.200        0.000
  YS02001920           JUNCTION        0.56          0.351        0.789
  YS02001658           JUNCTION        5.08          1.300        0.000
  YS02001661           JUNCTION        0.23          1.390        0.000
  YS02001622           JUNCTION        5.25          0.620        0.000
  YS02001633           JUNCTION        5.60          0.998        0.062
  YS02001649           JUNCTION        5.64          1.050        0.000
  YS02001757           JUNCTION        5.74          1.210        0.000
  YS02001895           JUNCTION        0.76          0.564        0.186
  YS02001625           JUNCTION        5.53          0.780        0.000
  YS02163301           JUNCTION        5.58          0.942        0.088
  YS02163601           JUNCTION        5.64          1.043        0.037
  YS02164001           JUNCTION        5.61          0.976        0.124
  YS02001647           JUNCTION        5.45          0.810        0.090
  YS02006553           JUNCTION        1.55          0.964        0.226
  YS02006561           JUNCTION        0.66          0.288        0.862
  YS02006556           JUNCTION        1.19          0.880        0.470
  YS02006558           JUNCTION        1.17          0.859        0.541
  YS02001783           JUNCTION        1.28          0.675        0.925
  YS02001784           JUNCTION        1.34          1.038        0.452
  YS02001786           JUNCTION        1.29          1.094        0.336
  YS02001788           JUNCTION        1.27          1.480        0.000
  YS02001790           JUNCTION        2.65          1.157        0.000
  YS02001791           JUNCTION        2.76          0.867        1.053
  YS02001793           JUNCTION        2.96          1.471        1.129
  
  
  *********************
  Node Flooding Summary
  *********************
  
  Flooding refers to all water that overflows a node, whether it ponds or not.
  --------------------------------------------------------------------------
                                                             Total   Maximum
                                 Maximum   Time of Max       Flood    Ponded
                        Hours       Rate    Occurrence      Volume     Depth
  Node                 Flooded       LPS   days hr:min    10^6 ltr    Meters
  --------------------------------------------------------------------------
  WS02006256              0.01    406.11      0  00:00       0.001     0.000
  YS02001748              0.01    218.82      0  02:44       0.000     0.000
  YS02001754              0.01     21.66      0  02:42       0.000     0.000
  YS02001770              0.01      5.75      0  02:44       0.000     0.000
  YS02001779              2.71    244.38      0  03:26       0.863     0.000
  YS02001890              0.01      2.19      0  02:52       0.000     0.000
  YS02001907              0.39    291.57      0  02:59       0.210     0.000
  YS02001619              0.01     43.00      0  02:39       0.000     0.000
  YS02001629              0.01     34.59      0  02:41       0.000     0.000
  YS02001644              4.51    965.62      0  03:25       6.376     0.000
  YS02001652              0.01     23.73      0  03:05       0.000     0.000
  YS02001655              0.01     24.12      0  02:39       0.000     0.000
  YS02001658              0.01    345.72      0  02:39       0.001     0.000
  YS02001661              0.01    183.52      0  03:05       0.001     0.000
  YS02001622              0.01     29.76      0  02:40       0.000     0.000
  YS02001649              0.08     51.09      0  03:05       0.005     0.000
  YS02001757              0.01     19.83      0  02:44       0.000     0.000
  YS02001625              0.85    168.19      0  03:01       0.232     0.000
  YS02001788              0.01     59.60      0  02:37       0.000     0.000
  YS02001790              0.01    114.19      0  02:36       0.000     0.000
  JK-storage              2.34    868.35      0  02:52       3.148     0.000
  XR-storage              4.21    585.65      0  03:01       3.188     0.000
  
  
  **********************
  Storage Volume Summary
  **********************
  
  --------------------------------------------------------------------------------------------------
                         Average     Avg  Evap Exfil       Maximum     Max    Time of Max    Maximum
                          Volume    Pcnt  Pcnt  Pcnt        Volume    Pcnt     Occurrence    Outflow
  Storage Unit           1000 m3    Full  Loss  Loss       1000 m3    Full    days hr:min        LPS
  --------------------------------------------------------------------------------------------------
  JK-storage               0.175      60     0     0         0.291     100       0  02:37     600.00
  CC-storage               2.990      19     0     0         3.843      24       0  03:43     400.00
  XR-storage               0.879      95     0     0         0.926     100       0  02:30     380.00
  
  
  ***********************
  Outfall Loading Summary
  ***********************
  
  -----------------------------------------------------------
                         Flow       Avg       Max       Total
                         Freq      Flow      Flow      Volume
  Outfall Node           Pcnt       LPS       LPS    10^6 ltr
  -----------------------------------------------------------
  WSC                   99.99    584.48    909.90      14.339
  3                     84.65    201.07    597.65       3.585
  4                     32.34     70.29    229.47       0.461
  5                      0.00      0.00      0.00       0.000
  -----------------------------------------------------------
  System                54.25    855.84   1352.11      18.385
  
  
  ********************
  Link Flow Summary
  ********************
  
  -----------------------------------------------------------------------------
                                 Maximum  Time of Max   Maximum    Max/    Max/
                                  |Flow|   Occurrence   |Veloc|    Full    Full
  Link                 Type          LPS  days hr:min     m/sec    Flow   Depth
  -----------------------------------------------------------------------------
  WS02003066WSF200     CONDUIT    669.51     0  03:06      2.92    0.11    0.26
  WS02006287WS02006284 CONDUIT    375.44     0  03:02      1.98    0.17    0.29
  WS02006284WS02006280 CONDUIT    375.54     0  03:02      2.22    0.16    0.27
  WS02006280WS02006229 CONDUIT    375.58     0  03:02      3.58    0.08    0.19
  WS02006229WS02006228 CONDUIT    661.87     0  03:02      1.32    2.19    1.00
  WS02006256WS02006235 CONDUIT    177.52     0  00:01      2.73    1.88    1.00
  WS02006253WS02006251 CONDUIT     87.89     0  03:01      0.46    0.26    1.00
  WS02006252WS02006251 CONDUIT    400.32     0  02:34      3.19    1.47    1.00
  WS02006251WS02006249 CONDUIT    475.31     0  03:00      1.25    1.37    0.97
  WS02006249WS02006248 CONDUIT    352.70     0  03:50      1.15    1.93    0.92
  WS02006248WS02006247 CONDUIT    346.87     0  03:50      1.11    0.76    0.97
  WS02006247WS02006245 CONDUIT    340.30     0  03:51      1.08    2.70    1.00
  WS02006245WS02006243 CONDUIT    332.92     0  03:51      1.14    0.98    1.00
  WS02006243WS02006242 CONDUIT    322.53     0  03:51      1.02    0.69    1.00
  WS02006242WS02006240 CONDUIT    313.57     0  07:01      0.89    1.25    1.00
  WS02006240WS02006239 CONDUIT    310.34     0  07:02      1.04    0.98    1.00
  WS02006239WS02006238 CONDUIT    309.42     0  07:02      0.84    0.99    1.00
  WS02006238WS02006235 CONDUIT    310.65     0  06:30      1.32    0.69    1.00
  WS02006235WS02006234 CONDUIT    392.56     0  06:01      1.10    4.14    1.00
  WS02006234WS02006232 CONDUIT    390.91     0  06:01      1.17    0.79    1.00
  WS02006232WS02006231 CONDUIT    390.79     0  06:02      1.06    0.82    1.00
  WS02006231WS02006230 CONDUIT    388.66     0  06:02      1.35    5.90    1.00
  WS02006230WS02006229 CONDUIT    398.04     0  06:03      1.03    8.86    1.00
  WS02006228WS02006109 CONDUIT    661.78     0  03:02      1.32    2.89    1.00
  WS02006116WS02004401 CONDUIT    671.83     0  03:03      0.86    0.93    0.98
  WS02006115WS02006116 CONDUIT    674.32     0  03:03      0.90    0.87    0.91
  WS02006113WS02006111 CONDUIT    693.43     0  03:03      2.59    0.83    0.55
  WS02006112WS02006115 CONDUIT    675.98     0  03:03      0.88    0.40    0.94
  WS02006111WS02006112 CONDUIT    663.83     0  03:03      1.71    0.32    0.73
  WS02006110WS02006113 CONDUIT    664.16     0  03:02      1.51    0.60    0.82
  WS02006109WS02006110 CONDUIT    662.99     0  03:02      1.32    1.27    1.00
  WS02004411WS02004412 CONDUIT    669.62     0  03:05      1.04    0.95    0.77
  WS02004401WS02004402 CONDUIT    671.77     0  03:03      0.86    0.81    0.99
  WS02004413WS02003067 CONDUIT    669.32     0  03:06      1.26    0.29    0.64
  WS02004412WS02004413 CONDUIT    669.35     0  03:05      0.95    0.45    0.84
  WS02004410WS02004411 CONDUIT    669.83     0  03:05      1.04    0.91    0.77
  WS02004409WS02004410 CONDUIT    670.39     0  03:04      1.04    0.87    0.76
  WS02004407WS02004409 CONDUIT    670.94     0  03:04      1.54    0.24    0.54
  WS02004406WS02004407 CONDUIT    671.50     0  03:04      1.21    0.30    0.67
  WS02004405WS02004406 CONDUIT    671.60     0  03:04      0.86    1.32    1.00
  WS02004404WS02004405 CONDUIT    671.33     0  03:04      0.85    6.58    1.00
  WS02004403WS02004404 CONDUIT    671.12     0  03:04      0.85    0.49    1.00
  WS02004402WS02004403 CONDUIT    671.16     0  03:04      0.85    0.96    1.00
  WS02004139WS02001211 CONDUIT    380.42     0  03:40      0.57    0.48    0.59
  WS02004138WS02004139 CONDUIT    380.00     0  03:32      2.39    0.08    0.44
  WS02003067WS02003066 CONDUIT    669.47     0  03:06      1.37    0.21    0.45
  WS02001213WS02003059 CONDUIT    388.84     0  03:41      0.67    0.64    0.76
  WS02001212WS02001213 CONDUIT    388.24     0  03:40      1.29    0.60    0.46
  WS02001211WS02001212 CONDUIT    387.96     0  03:40      0.76    0.30    0.64
  WS02003072WS02003073 CONDUIT    908.41     0  02:54      1.71    1.96    0.48
  WS02003069WS02003072 CONDUIT    908.66     0  02:53      1.61    0.44    0.50
  WS02003060WS02003069 CONDUIT    908.97     0  02:53      1.85    0.36    0.45
  WS02003059WS02003060 CONDUIT    389.89     0  03:41      0.91    0.25    0.64
  HS02004901HS02004770 CONDUIT     17.71     0  03:01      0.07    0.07    0.39
  HS02004876HS02004881 CONDUIT     71.90     0  03:01      0.92    0.76    0.11
  HS02004870HS02004876 CONDUIT     58.03     0  03:01      0.63    0.04    0.13
  HS02004842HS02004848 CONDUIT     11.42     0  03:01      0.05    0.01    0.30
  HS02004837HS02004842 CONDUIT     11.94     0  03:02      0.41    0.01    0.32
  HS02004830HS02004837 CONDUIT     41.69     0  03:01      0.56    0.04    0.11
  HS02004824HS02004830 CONDUIT     41.67     0  03:01      0.58    0.05    0.10
  HS02004817HS02004824 CONDUIT     81.58     0  03:01      0.25    0.04    0.47
  HS02004770HS02004777 CONDUIT     90.21     0  03:01      0.32    0.16    0.41
  HS02004799HS02004480 CONDUIT    226.97     0  03:01      0.78    0.29    0.42
  HS02004792HS02004799 CONDUIT    206.60     0  03:01      0.88    0.13    0.33
  HS02004788HS02004792 CONDUIT    118.94     0  03:01      1.01    0.08    0.17
  HS02004785HS02004788 CONDUIT     89.52     0  03:02      0.66    0.67    0.19
  HS02004777HS02004785 CONDUIT     89.64     0  03:01      0.38    0.11    0.33
  HS02004480HS02004478 CONDUIT    269.12     0  03:01      1.20    1.13    0.32
  HS02004479HS02004480 CONDUIT     44.17     0  03:02      0.23    0.04    0.40
  HS02004862HS02004870 CONDUIT     44.23     0  03:01      0.64    0.05    0.10
  HS02004848HS02004852 CONDUIT     20.44     0  03:01      0.44    0.02    0.07
  HS02004856HS02004862 CONDUIT     30.57     0  03:01      0.47    0.03    0.09
  HS02004852HS02004856 CONDUIT     20.26     0  03:01      0.24    0.02    0.12
  HS02004802HS02004478 CONDUIT    106.59     0  03:02      0.45    0.09    0.35
  HS02004478WS02006287 CONDUIT    375.27     0  03:01      1.68    0.11    0.25
  HS02004817HS02004807 CONDUIT     82.18     0  03:01      0.19    0.05    0.62
  HS02004807HS02004802 CONDUIT    106.49     0  03:01      0.38    0.20    0.40
  YS02001759YS02001757 CONDUIT    676.41     0  02:56      0.86    0.48    1.00
  YS02001762YS02001759 CONDUIT    342.25     0  02:56      0.44    0.39    1.00
  YS02001765YS02001762 CONDUIT    342.43     0  02:55      0.44    0.32    1.00
  YS02001770YS02001767 CONDUIT    341.78     0  02:55      0.44    1.35    1.00
  YS02001774YS02001770 CONDUIT    244.45     0  03:26      0.31    0.16    1.00
  YS02001779YS02001774 CONDUIT    244.40     0  03:26      0.31    0.12    1.00
  YS02001649YS02001757 CONDUIT    943.93     0  02:50      1.20    0.57    1.00
  YS02001767YS02001765 CONDUIT    342.31     0  02:55      0.44    0.43    1.00
  YS02006561YS02001783 CONDUIT    963.97     0  03:00      2.11    0.50    1.00
  YS02001783YS02001784 CONDUIT    964.03     0  03:01      1.92    1.33    1.00
  YS02001784YS02001785 CONDUIT    965.06     0  03:00      1.92    2.25    1.00
  YS02001788YS02001790 CONDUIT    965.13     0  03:00      2.30    0.71    1.00
  YS02001790YS02001791 CONDUIT    965.42     0  03:00      2.80    1.05    1.00
  YS02001791YS02001793 CONDUIT    965.43     0  03:00      5.57    0.41    1.00
  YS02001910YS02001907 CONDUIT    447.81     0  02:54      0.57    0.25    1.00
  YS02001786YS02001788 CONDUIT    965.10     0  03:00      2.21    1.86    1.00
  YS02001915YS02001910 CONDUIT    447.95     0  02:54      0.57    0.22    1.00
  YS02001918YS02001915 CONDUIT    213.49     0  02:54      0.44    0.12    1.00
  YS02001923YS02001920 CONDUIT    210.17     0  02:54      0.68    0.09    1.00
  YS02001926YS02001923 CONDUIT    230.23     0  02:55      0.79    0.33    0.89
  YS02001929YS02001926 CONDUIT    198.09     0  02:54      0.84    0.09    0.80
  YS02001920YS02001918 CONDUIT    213.02     0  02:54      0.67    0.21    1.00
  YS02001629YS02163301 CONDUIT    210.78     0  02:39      0.27    0.26    1.00
  YS02001619YS02001622 CONDUIT    257.54     0  03:01      0.61    0.38    1.00
  YS02001622YS02001625 CONDUIT    257.32     0  03:01      0.33    0.14    1.00
  YS02001625YS02001629 CONDUIT    208.55     0  02:50      0.27    0.10    1.00
  YS02163301YS02001633 CONDUIT    210.84     0  02:39      0.27    0.20    1.00
  YS02163601YS02164001 CONDUIT    442.92     0  02:50      0.56    0.39    1.00
  YS02164001YS02001641 CONDUIT    442.38     0  02:50      0.56    0.60    1.00
  YS02001641YS02001644 CONDUIT    442.47     0  02:50      0.56    1.43    1.00
  YS02001647YS02001649 CONDUIT    673.63     0  02:50      0.86    0.36    1.00
  YS02006553YS02006556 CONDUIT    666.98     0  03:17      0.85    0.57    1.00
  YS02006556YS02006558 CONDUIT    667.00     0  03:17      0.85    0.53    1.00
  YSB6556YSB1171       CONDUIT     24.81     0  03:03      0.09    0.03    0.67
  YS02001907YS02006553 CONDUIT    666.89     0  03:17      0.74    0.78    1.00
  YS02006558YS02006561 CONDUIT    964.00     0  02:59      3.41    2.13    1.00
  YS02001633YS02163601 CONDUIT    442.94     0  02:50      0.56    0.46    1.00
  YS02001644YS02001647 CONDUIT    673.66     0  02:50      0.86    0.40    1.00
  YS02001745YS02001748 CONDUIT    598.09     0  02:42      1.48    0.23    0.94
  YS02001748YS02001751 CONDUIT    394.98     0  02:34      1.05    0.20    1.00
  YS02001751YS02001754 CONDUIT    307.93     0  03:01      0.88    0.15    1.00
  YS02001754YS02001757 CONDUIT    307.99     0  03:01      0.39    0.12    1.00
  YS02001882YS02001884 CONDUIT     30.82     0  02:46      0.09    0.04    1.00
  YS02001884YS02001887 CONDUIT     60.39     0  02:39      0.09    0.08    1.00
  YS02001890YS02001895 CONDUIT    453.58     0  03:01      0.58    0.21    1.00
  YS02001895YS02001898 CONDUIT    453.50     0  03:01      0.58    0.79    1.00
  YS02001898YS02001901 CONDUIT    453.66     0  03:01      0.58    0.29    1.00
  YS02001901YS02001904 CONDUIT    453.58     0  03:01      0.58    0.70    1.00
  YS02001904YS02001907 CONDUIT    453.76     0  03:01      0.58    0.16    1.00
  YS02001887YS02001890 CONDUIT    453.48     0  03:01      0.58    0.78    1.00
  YS02001652YS02001649 CONDUIT    375.58     0  03:01      0.50    0.19    1.00
  YS02001655YS02001652 CONDUIT    375.59     0  03:01      0.93    0.18    1.00
  YS02001658YS02001655 CONDUIT    375.57     0  03:01      1.21    0.16    1.00
  YS02001661YS02001658 CONDUIT    635.09     0  02:39      1.56    0.25    1.00
  YS02001664YS02001661 CONDUIT    696.81     0  02:55      1.51    0.22    0.72
  YSB1154YSB6556       CONDUIT     24.91     0  03:01      0.19    0.04    0.56
  YSB1174YSB1171       CONDUIT     18.78     0  03:01      0.07    0.03    0.68
  YSB1171HS02004479    CONDUIT     42.82     0  03:02      0.54    0.03    0.53
  HS02004881HS02006253 CONDUIT     79.15     0  03:01      1.89    0.02    0.31
  YS02001793JiankangQianchi CONDUIT    965.50     0  03:00     10.39    0.08    1.00
  YS02001757CaochengTiaoxuchi CONDUIT   1794.30     0  02:51      2.41    0.79    1.00
  WSF200WS02003060     CONDUIT    669.44     0  03:06      1.99    0.15    0.35
  1                    CONDUIT    909.90     0  02:55      3.24    0.32    0.39
  2                    CONDUIT    229.47     0  03:00      6.04    0.55    0.53
  3                    CONDUIT    597.65     0  00:00     10.05    0.95    0.86
  4                    CONDUIT      0.00     0  00:00      0.00    0.00    0.00
  CC-Pump-1            PUMP       200.00     0  01:59              1.00
  CC-Pump-2            PUMP       200.00     0  02:30              1.00
  JK-Pump-1            PUMP       300.00     0  00:00              1.00
  JK-Pump-2            PUMP       300.00     0  00:00              1.00
  XR-Pump-1            PUMP        95.00     0  00:50              1.00
  XR-Pump-2            PUMP        95.00     0  00:20              1.00
  XR-Pump-3            PUMP        95.00     0  00:30              1.00
  XR-Pump-4            PUMP        95.00     0  00:00              1.00
  
  
  ***************************
  Flow Classification Summary
  ***************************
  
  -------------------------------------------------------------------------------------
                      Adjusted    ---------- Fraction of Time in Flow Class ---------- 
                       /Actual         Up    Down  Sub   Sup   Up    Down  Norm  Inlet 
  Conduit               Length    Dry  Dry   Dry   Crit  Crit  Crit  Crit  Ltd   Ctrl  
  -------------------------------------------------------------------------------------
  WS02003066WSF200        1.00   0.05  0.01  0.00  0.00  0.94  0.00  0.00  0.59  0.00
  WS02006287WS02006284    1.00   0.03  0.01  0.00  0.57  0.38  0.00  0.00  0.65  0.00
  WS02006284WS02006280    1.00   0.04  0.00  0.00  0.00  0.00  0.00  0.96  0.00  0.00
  WS02006280WS02006229    1.00   0.04  0.00  0.00  0.00  0.00  0.00  0.96  0.00  0.00
  WS02006229WS02006228    1.00   0.00  0.00  0.00  0.98  0.00  0.00  0.02  0.00  0.00
  WS02006256WS02006235    1.00   0.00  0.00  0.00  1.00  0.00  0.00  0.00  0.00  0.00
  WS02006253WS02006251    1.00   0.02  0.01  0.00  0.96  0.00  0.00  0.00  0.00  0.00
  WS02006252WS02006251    1.00   0.06  0.00  0.00  0.00  0.00  0.94  0.00  0.00  0.00
  WS02006251WS02006249    1.00   0.00  0.00  0.00  1.00  0.00  0.00  0.00  0.31  0.00
  WS02006249WS02006248    1.00   0.00  0.02  0.00  0.83  0.00  0.15  0.00  0.00  0.00
  WS02006248WS02006247    1.00   0.02  0.00  0.00  0.97  0.00  0.00  0.01  0.20  0.00
  WS02006247WS02006245    1.00   0.02  0.00  0.00  0.97  0.00  0.00  0.02  0.00  0.00
  WS02006245WS02006243    1.00   0.02  0.00  0.00  0.95  0.00  0.00  0.04  0.02  0.00
  WS02006243WS02006242    1.00   0.01  0.00  0.00  0.99  0.00  0.00  0.00  0.22  0.00
  WS02006242WS02006240    1.00   0.00  0.00  0.00  1.00  0.00  0.00  0.00  0.00  0.00
  WS02006240WS02006239    1.00   0.00  0.00  0.00  0.96  0.00  0.00  0.03  0.02  0.00
  WS02006239WS02006238    1.00   0.00  0.00  0.00  1.00  0.00  0.00  0.00  0.00  0.00
  WS02006238WS02006235    1.00   0.00  0.00  0.00  1.00  0.00  0.00  0.00  0.00  0.00
  WS02006235WS02006234    1.00   0.00  0.00  0.00  0.96  0.00  0.04  0.00  0.00  0.00
  WS02006234WS02006232    1.00   0.00  0.00  0.00  1.00  0.00  0.00  0.00  0.09  0.00
  WS02006232WS02006231    1.00   0.00  0.00  0.00  0.99  0.00  0.01  0.00  0.00  0.00
  WS02006231WS02006230    1.00   0.00  0.00  0.00  0.51  0.00  0.48  0.00  0.00  0.00
  WS02006230WS02006229    1.00   0.00  0.00  0.00  0.98  0.00  0.00  0.02  0.01  0.00
  WS02006228WS02006109    1.00   0.00  0.00  0.00  1.00  0.00  0.00  0.00  0.00  0.00
  WS02006116WS02004401    1.00   0.02  0.00  0.00  0.98  0.00  0.00  0.00  0.00  0.00
  WS02006115WS02006116    1.00   0.02  0.00  0.00  0.97  0.00  0.00  0.01  0.01  0.00
  WS02006113WS02006111    1.00   0.02  0.00  0.00  0.00  0.98  0.00  0.00  0.12  0.00
  WS02006112WS02006115    1.00   0.02  0.00  0.00  0.98  0.00  0.00  0.00  0.00  0.00
  WS02006111WS02006112    1.00   0.02  0.00  0.00  0.98  0.00  0.00  0.00  0.91  0.00
  WS02006110WS02006113    1.00   0.01  0.00  0.00  0.98  0.00  0.00  0.00  0.00  0.00
  WS02006109WS02006110    1.00   0.00  0.01  0.00  0.98  0.00  0.00  0.00  0.00  0.00
  WS02004411WS02004412    1.00   0.05  0.00  0.00  0.95  0.00  0.00  0.00  0.00  0.00
  WS02004401WS02004402    1.00   0.02  0.00  0.00  0.98  0.00  0.00  0.00  0.00  0.00
  WS02004413WS02003067    1.00   0.05  0.01  0.00  0.00  0.00  0.94  0.00  0.00  0.00
  WS02004412WS02004413    1.00   0.05  0.00  0.00  0.95  0.00  0.00  0.00  0.01  0.00
  WS02004410WS02004411    1.00   0.05  0.00  0.00  0.95  0.00  0.00  0.00  0.00  0.00
  WS02004409WS02004410    1.00   0.05  0.00  0.00  0.95  0.00  0.00  0.00  0.00  0.00
  WS02004407WS02004409    1.00   0.05  0.00  0.00  0.95  0.00  0.00  0.00  0.80  0.00
  WS02004406WS02004407    1.00   0.00  0.04  0.00  0.95  0.00  0.00  0.00  0.00  0.00
  WS02004405WS02004406    1.00   0.00  0.00  0.00  1.00  0.00  0.00  0.00  0.02  0.00
  WS02004404WS02004405    1.00   0.00  0.00  0.00  1.00  0.00  0.00  0.00  0.00  0.00
  WS02004403WS02004404    1.00   0.00  0.02  0.00  0.98  0.00  0.00  0.00  0.02  0.00
  WS02004402WS02004403    1.00   0.02  0.00  0.00  0.98  0.00  0.00  0.00  0.00  0.00
  WS02004139WS02001211    1.00   0.00  0.00  0.00  0.99  0.00  0.01  0.00  0.00  0.00
  WS02004138WS02004139    1.00   0.00  0.00  0.00  0.98  0.01  0.00  0.00  1.00  0.00
  WS02003067WS02003066    1.00   0.06  0.00  0.00  0.94  0.00  0.00  0.00  0.00  0.00
  WS02001213WS02003059    1.00   0.00  0.01  0.00  0.99  0.00  0.00  0.00  0.00  0.00
  WS02001212WS02001213    1.00   0.01  0.00  0.00  0.76  0.00  0.23  0.00  0.00  0.00
  WS02001211WS02001212    1.00   0.00  0.01  0.00  0.99  0.00  0.00  0.00  0.00  0.00
  WS02003072WS02003073    1.00   0.00  0.00  0.00  0.00  0.00  0.00  1.00  0.00  0.00
  WS02003069WS02003072    1.00   0.00  0.00  0.00  0.99  0.01  0.00  0.00  0.30  0.00
  WS02003060WS02003069    1.00   0.00  0.00  0.00  0.98  0.02  0.00  0.00  0.15  0.00
  WS02003059WS02003060    1.00   0.00  0.00  0.00  0.99  0.01  0.00  0.00  0.02  0.00
  HS02004901HS02004770    1.00   0.04  0.00  0.00  0.96  0.00  0.00  0.00  0.00  0.00
  HS02004876HS02004881    1.00   0.02  0.00  0.00  0.89  0.09  0.00  0.00  0.00  0.00
  HS02004870HS02004876    1.00   0.01  0.00  0.00  0.99  0.00  0.00  0.00  0.95  0.00
  HS02004842HS02004848    1.00   0.00  0.04  0.00  0.96  0.00  0.00  0.00  0.58  0.00
  HS02004837HS02004842    1.00   0.00  0.00  0.00  0.99  0.01  0.00  0.00  0.11  0.00
  HS02004830HS02004837    1.00   0.00  0.00  0.00  1.00  0.00  0.00  0.00  0.99  0.00
  HS02004824HS02004830    1.00   0.00  0.00  0.00  1.00  0.00  0.00  0.00  0.00  0.00
  HS02004817HS02004824    1.00   0.00  0.00  0.00  1.00  0.00  0.00  0.00  1.00  0.00
  HS02004770HS02004777    1.00   0.00  0.03  0.00  0.96  0.00  0.00  0.00  0.03  0.00
  HS02004799HS02004480    1.00   0.00  0.02  0.00  0.96  0.00  0.02  0.00  0.00  0.00
  HS02004792HS02004799    1.00   0.00  0.00  0.00  0.99  0.01  0.00  0.00  0.98  0.00
  HS02004788HS02004792    1.00   0.00  0.00  0.00  0.99  0.01  0.00  0.00  0.98  0.00
  HS02004785HS02004788    1.00   0.00  0.00  0.00  1.00  0.00  0.00  0.00  0.00  0.00
  HS02004777HS02004785    1.00   0.00  0.00  0.00  1.00  0.00  0.00  0.00  0.14  0.00
  HS02004480HS02004478    1.00   0.04  0.00  0.00  0.64  0.00  0.00  0.32  0.00  0.00
  HS02004479HS02004480    1.00   0.02  0.00  0.00  0.98  0.00  0.00  0.00  0.13  0.00
  HS02004862HS02004870    1.00   0.00  0.00  0.00  1.00  0.00  0.00  0.00  0.05  0.00
  HS02004848HS02004852    1.00   0.04  0.00  0.00  0.96  0.00  0.00  0.00  0.61  0.00
  HS02004856HS02004862    1.00   0.00  0.05  0.00  0.95  0.00  0.00  0.00  0.80  0.00
  HS02004852HS02004856    1.00   0.04  0.00  0.00  0.96  0.00  0.00  0.00  0.85  0.00
  HS02004802HS02004478    1.00   0.04  0.00  0.00  0.96  0.00  0.00  0.00  0.03  0.00
  HS02004478WS02006287    1.00   0.04  0.00  0.00  0.71  0.24  0.00  0.00  0.66  0.00
  HS02004817HS02004807    1.00   0.00  0.04  0.00  0.96  0.00  0.00  0.00  0.01  0.00
  HS02004807HS02004802    1.00   0.04  0.00  0.00  0.96  0.00  0.00  0.00  0.00  0.00
  YS02001759YS02001757    1.00   0.00  0.00  0.00  1.00  0.00  0.00  0.00  0.16  0.00
  YS02001762YS02001759    1.00   0.00  0.00  0.00  1.00  0.00  0.00  0.00  0.04  0.00
  YS02001765YS02001762    1.00   0.00  0.00  0.00  1.00  0.00  0.00  0.00  0.16  0.00
  YS02001770YS02001767    1.00   0.00  0.00  0.00  1.00  0.00  0.00  0.00  0.00  0.00
  YS02001774YS02001770    1.00   0.00  0.03  0.00  0.96  0.00  0.00  0.00  0.04  0.00
  YS02001779YS02001774    1.00   0.00  0.00  0.00  1.00  0.00  0.00  0.00  0.21  0.00
  YS02001649YS02001757    1.00   0.00  0.00  0.00  1.00  0.00  0.00  0.00  0.17  0.00
  YS02001767YS02001765    1.00   0.00  0.00  0.00  1.00  0.00  0.00  0.00  0.00  0.00
  YS02006561YS02001783    1.00   0.05  0.00  0.00  0.44  0.51  0.00  0.00  0.56  0.00
  YS02001783YS02001784    1.00   0.00  0.05  0.00  0.95  0.00  0.00  0.00  0.01  0.00
  YS02001784YS02001785    1.00   0.00  0.00  0.00  1.00  0.00  0.00  0.00  0.20  0.00
  YS02001788YS02001790    1.00   0.00  0.00  0.00  0.52  0.48  0.00  0.00  0.48  0.00
  YS02001790YS02001791    1.00   0.00  0.00  0.00  0.50  0.50  0.00  0.00  0.37  0.00
  YS02001791YS02001793    1.00   0.00  0.00  0.00  0.51  0.48  0.00  0.00  0.02  0.00
  YS02001910YS02001907    1.00   0.00  0.00  0.00  0.98  0.00  0.00  0.02  0.13  0.00
  YS02001786YS02001788    1.00   0.00  0.00  0.00  0.50  0.50  0.00  0.00  0.00  0.00
  YS02001915YS02001910    1.00   0.00  0.00  0.00  0.99  0.01  0.00  0.00  0.18  0.00
  YS02001918YS02001915    1.00   0.00  0.01  0.00  0.99  0.00  0.00  0.00  0.58  0.00
  YS02001923YS02001920    1.00   0.00  0.00  0.00  1.00  0.00  0.00  0.00  0.85  0.00
  YS02001926YS02001923    1.00   0.00  0.03  0.00  0.15  0.00  0.82  0.00  0.00  0.00
  YS02001929YS02001926    1.00   0.00  0.04  0.00  0.96  0.00  0.00  0.00  0.78  0.00
  YS02001920YS02001918    1.00   0.00  0.01  0.00  0.99  0.00  0.00  0.00  0.00  0.00
  YS02001629YS02163301    1.00   0.04  0.00  0.00  0.96  0.00  0.00  0.00  0.00  0.00
  YS02001619YS02001622    1.00   0.04  0.00  0.00  0.96  0.00  0.00  0.00  0.00  0.00
  YS02001622YS02001625    1.00   0.04  0.00  0.00  0.96  0.00  0.00  0.00  0.07  0.00
  YS02001625YS02001629    1.00   0.04  0.01  0.00  0.94  0.00  0.01  0.00  0.00  0.00
  YS02163301YS02001633    1.00   0.00  0.04  0.00  0.96  0.00  0.00  0.00  0.00  0.00
  YS02163601YS02164001    1.00   0.00  0.03  0.00  0.97  0.00  0.00  0.00  0.00  0.00
  YS02164001YS02001641    1.00   0.01  0.02  0.00  0.97  0.00  0.00  0.00  0.06  0.00
  YS02001641YS02001644    1.00   0.00  0.01  0.00  0.99  0.00  0.00  0.00  0.00  0.00
  YS02001647YS02001649    1.00   0.00  0.05  0.00  0.95  0.00  0.00  0.00  0.01  0.00
  YS02006553YS02006556    1.00   0.02  0.00  0.00  0.98  0.00  0.00  0.00  0.03  0.00
  YS02006556YS02006558    1.00   0.00  0.00  0.00  1.00  0.00  0.00  0.00  0.00  0.00
  YSB6556YSB1171          1.00   0.02  0.01  0.00  0.97  0.00  0.00  0.00  0.00  0.00
  YS02001907YS02006553    1.00   0.00  0.01  0.00  0.98  0.00  0.00  0.00  0.00  0.00
  YS02006558YS02006561    1.00   0.05  0.00  0.00  0.19  0.76  0.00  0.00  0.48  0.00
  YS02001633YS02163601    1.00   0.00  0.01  0.00  0.99  0.00  0.00  0.00  0.16  0.00
  YS02001644YS02001647    1.00   0.00  0.05  0.00  0.95  0.00  0.00  0.00  0.00  0.00
  YS02001745YS02001748    1.00   0.00  0.00  0.00  0.90  0.01  0.00  0.09  0.04  0.00
  YS02001748YS02001751    1.00   0.00  0.00  0.00  0.98  0.02  0.00  0.00  0.15  0.00
  YS02001751YS02001754    1.00   0.00  0.00  0.00  0.95  0.00  0.00  0.05  0.02  0.00
  YS02001754YS02001757    1.00   0.00  0.00  0.00  0.99  0.01  0.00  0.00  0.20  0.00
  YS02001882YS02001884    1.00   0.04  0.00  0.00  0.96  0.00  0.00  0.00  0.00  0.00
  YS02001884YS02001887    1.00   0.02  0.01  0.00  0.97  0.00  0.00  0.00  0.00  0.00
  YS02001890YS02001895    1.00   0.00  0.04  0.00  0.96  0.00  0.00  0.00  0.00  0.00
  YS02001895YS02001898    1.00   0.04  0.00  0.00  0.95  0.00  0.01  0.00  0.00  0.00
  YS02001898YS02001901    1.00   0.04  0.00  0.00  0.96  0.00  0.00  0.00  0.02  0.00
  YS02001901YS02001904    1.00   0.04  0.00  0.00  0.96  0.00  0.00  0.00  0.00  0.00
  YS02001904YS02001907    1.00   0.00  0.04  0.00  0.96  0.00  0.00  0.00  0.00  0.00
  YS02001887YS02001890    1.00   0.00  0.00  0.00  0.98  0.00  0.02  0.00  0.00  0.00
  YS02001652YS02001649    1.00   0.00  0.00  0.00  1.00  0.00  0.00  0.00  0.18  0.00
  YS02001655YS02001652    1.00   0.00  0.00  0.00  0.95  0.00  0.00  0.05  0.02  0.00
  YS02001658YS02001655    1.00   0.00  0.04  0.00  0.94  0.02  0.00  0.00  0.11  0.00
  YS02001661YS02001658    1.00   0.04  0.00  0.00  0.90  0.07  0.00  0.00  0.06  0.00
  YS02001664YS02001661    1.00   0.04  0.00  0.00  0.87  0.09  0.00  0.00  0.22  0.00
  YSB1154YSB6556          1.00   0.03  0.00  0.00  0.97  0.00  0.00  0.00  0.02  0.00
  YSB1174YSB1171          1.00   0.02  0.01  0.00  0.97  0.00  0.00  0.00  0.00  0.00
  YSB1171HS02004479       1.00   0.02  0.00  0.00  0.98  0.00  0.00  0.00  0.11  0.00
  HS02004881HS02006253    1.00   0.02  0.00  0.00  0.68  0.03  0.00  0.27  0.53  0.00
  YS02001793JiankangQianchi    1.00   0.00  0.00  0.00  0.77  0.22  0.00  0.00  0.25  0.00
  YS02001757CaochengTiaoxuchi    1.00   0.00  0.06  0.00  0.94  0.00  0.00  0.00  0.00  0.00
  WSF200WS02003060        1.00   0.00  0.05  0.00  0.65  0.30  0.00  0.00  0.33  0.00
  1                       1.00   0.00  0.00  0.00  0.00  1.00  0.00  0.00  0.36  0.00
  2                       1.00   0.67  0.00  0.00  0.00  0.33  0.00  0.00  0.08  0.00
  3                       1.00   0.15  0.00  0.00  0.00  0.85  0.00  0.00  0.01  0.00
  4                       1.00   1.00  0.00  0.00  0.00  0.00  0.00  0.00  0.00  0.00
  
  
  *************************
  Conduit Surcharge Summary
  *************************
  
  ----------------------------------------------------------------------------
                                                           Hours        Hours 
                         --------- Hours Full --------   Above Full   Capacity
  Conduit                Both Ends  Upstream  Dnstream   Normal Flow   Limited
  ----------------------------------------------------------------------------
  WS02006229WS02006228        1.88      2.08      1.88      3.82         1.88
  WS02006256WS02006235        5.87      5.87      7.17      3.40         0.01
  WS02006253WS02006251        0.01      0.01      0.25      0.01         0.01
  WS02006252WS02006251        0.69      0.69      1.63      1.39         0.01
  WS02006251WS02006249        0.01      0.03      0.01      0.86         0.01
  WS02006249WS02006248        0.01      0.01      0.01      3.71         0.01
  WS02006248WS02006247        0.01      0.01      0.10      0.01         0.01
  WS02006247WS02006245        0.05      0.29      0.05      4.27         0.05
  WS02006245WS02006243        0.25      0.25      0.45      0.01         0.01
  WS02006243WS02006242        0.50      0.50      1.01      0.01         0.01
  WS02006242WS02006240        0.70      0.70      1.53      1.42         0.01
  WS02006240WS02006239        0.78      0.78      0.87      0.01         0.01
  WS02006239WS02006238        1.53      1.53      1.67      0.01         0.01
  WS02006238WS02006235        1.54      1.54      1.90      0.01         0.01
  WS02006235WS02006234        0.81      0.81      1.35      5.88         0.01
  WS02006234WS02006232        1.07      1.07      2.05      0.01         0.01
  WS02006232WS02006231        0.69      0.69      2.05      0.01         0.01
  WS02006231WS02006230        0.65      0.65      0.70      5.85         0.01
  WS02006230WS02006229        2.59      3.63      2.59      5.91         2.59
  WS02006228WS02006109        1.98      2.33      1.98      4.65         1.98
  WS02006112WS02006115        0.01      0.01      1.22      0.01         0.01
  WS02006111WS02006112        0.01      0.01      4.05      0.01         0.01
  WS02006110WS02006113        0.01      0.01      2.21      0.01         0.01
  WS02006109WS02006110        1.01      1.01      2.33      1.02         0.01
  WS02004401WS02004402        0.01      0.01      0.01      0.01         0.01
  WS02004406WS02004407        0.01      0.01      0.48      0.01         0.01
  WS02004405WS02004406        0.48      0.61      0.48      1.16         0.48
  WS02004404WS02004405        0.61      0.65      0.61      6.00         0.61
  WS02004403WS02004404        0.03      0.03      0.65      0.01         0.01
  WS02004402WS02004403        0.01      0.01      0.03      0.01         0.01
  WS02003072WS02003073        0.01      0.01      0.01      4.78         0.01
  HS02004480HS02004478        0.01      0.01      0.01      0.25         0.01
  YS02001759YS02001757        5.66      5.66      5.74      0.01         0.01
  YS02001762YS02001759        5.64      5.64      5.66      0.01         0.01
  YS02001765YS02001762        5.61      5.61      5.64      0.01         0.01
  YS02001770YS02001767        5.58      5.58      5.58      0.34         0.82
  YS02001774YS02001770        5.57      5.57      5.63      0.01         0.01
  YS02001779YS02001774        5.41      5.41      5.63      0.01         0.01
  YS02001649YS02001757        5.64      5.64      5.74      0.01         0.01
  YS02001767YS02001765        5.58      5.58      5.61      0.01         0.01
  YS02006561YS02001783        0.66      0.66      1.28      0.01         0.01
  YS02001783YS02001784        1.28      1.28      1.34      1.09         1.00
  YS02001784YS02001785        1.29      1.34      1.29      2.08         1.29
  YS02001788YS02001790        1.27      1.27      2.65      0.01         0.01
  YS02001790YS02001791        2.65      2.65      2.76      0.49         0.49
  YS02001791YS02001793        2.76      2.76      3.04      0.01         0.01
  YS02001910YS02001907        1.00      1.00      1.48      0.01         0.01
  YS02001786YS02001788        1.27      1.29      1.27      1.68         1.26
  YS02001915YS02001910        0.78      0.78      1.00      0.01         0.01
  YS02001918YS02001915        0.53      0.53      0.78      0.01         0.01
  YS02001923YS02001920        0.28      0.28      0.56      0.01         0.01
  YS02001920YS02001918        0.53      0.53      0.56      0.01         0.01
  YS02001629YS02163301        5.57      5.57      5.58      0.01         0.01
  YS02001619YS02001622        5.21      5.21      5.25      0.01         0.01
  YS02001622YS02001625        5.25      5.25      5.53      0.01         0.01
  YS02001625YS02001629        5.22      5.22      5.53      0.01         0.01
  YS02163301YS02001633        5.58      5.58      5.61      0.01         0.01
  YS02163601YS02164001        5.61      5.61      5.64      0.01         0.01
  YS02164001YS02001641        5.61      5.61      5.62      0.01         0.03
  YS02001641YS02001644        5.62      5.62      5.62      1.21         1.36
  YS02001647YS02001649        5.45      5.45      5.64      0.01         0.01
  YS02006553YS02006556        1.19      1.19      1.55      0.01         0.01
  YS02006556YS02006558        1.36      1.36      1.62      0.01         0.01
  YS02001907YS02006553        2.09      2.09      2.31      0.01         0.01
  YS02006558YS02006561        0.88      1.17      0.88      1.94         0.88
  YS02001633YS02163601        5.60      5.60      5.64      0.01         0.01
  YS02001644YS02001647        5.45      5.45      5.62      0.01         0.01
  YS02001745YS02001748        0.01      0.01      5.04      0.01         0.01
  YS02001748YS02001751        5.09      5.09      5.20      0.01         0.01
  YS02001751YS02001754        5.20      5.20      5.41      0.01         0.01
  YS02001754YS02001757        5.44      5.44      5.74      0.01         0.01
  YS02001882YS02001884        0.80      0.80      0.83      0.01         0.01
  YS02001884YS02001887        0.89      0.89      0.92      0.01         0.01
  YS02001890YS02001895        0.76      0.76      1.02      0.01         0.01
  YS02001895YS02001898        0.75      0.75      0.76      0.01         0.01
  YS02001898YS02001901        0.77      0.77      0.88      0.01         0.01
  YS02001901YS02001904        0.86      0.86      0.88      0.01         0.01
  YS02001904YS02001907        0.86      0.86      1.57      0.01         0.01
  YS02001887YS02001890        0.95      0.95      0.98      0.01         0.01
  YS02001652YS02001649        5.46      5.46      5.64      0.01         0.01
  YS02001655YS02001652        5.23      5.23      5.43      0.01         0.01
  YS02001658YS02001655        5.08      5.08      5.23      0.01         0.01
  YS02001661YS02001658        0.21      0.21      5.08      0.01         0.01
  YS02001664YS02001661        0.01      0.01      1.11      0.01         0.01
  YS02001793JiankangQianchi        2.96      2.96      4.30      0.01         0.01
  YS02001757CaochengTiaoxuchi        4.87      4.87      5.74      0.01         0.01
  3                           0.01      0.01      0.01      0.01         0.01
  
  
  ***************
  Pumping Summary
  ***************
  
  ---------------------------------------------------------------------------------------------------------
                                                  Min       Avg       Max     Total     Power    % Time Off
                        Percent   Number of      Flow      Flow      Flow    Volume     Usage    Pump Curve
  Pump                 Utilized   Start-Ups       LPS       LPS       LPS  10^6 ltr     Kw-hr    Low   High
  ---------------------------------------------------------------------------------------------------------
  CC-Pump-1               63.05           4      0.00    138.36    200.00     2.381      3.56    0.0   12.1
  CC-Pump-2               43.90           6      0.00    132.08    200.00     1.573      2.45    0.0    7.7
  JK-Pump-1               70.20          10      0.00    156.58    300.00     2.518     23.89    0.0    0.0
  JK-Pump-2               80.85           7      0.00    176.61    300.00     3.046     26.74    0.0    0.0
  XR-Pump-1               82.95           8      0.00     75.48     95.00     1.653      9.99    0.0    0.0
  XR-Pump-2               74.45          11      0.00     68.35     95.00     1.396      8.74    0.0    0.0
  XR-Pump-3               74.46           7      0.00     63.86     95.00     1.368     10.01    0.0    0.0
  XR-Pump-4               85.10           5      0.00     67.38     95.00     1.682     12.69    0.0    0.0
  

  Analysis begun on:  Thu Jan  6 21:52:30 2022
  Analysis ended on:  Thu Jan  6 21:52:34 2022
  Total elapsed time: 00:00:04