
  EPA STORM WATER MANAGEMENT MODEL - VERSION 5.1 (Build 5.3.0.dev0)
  --------------------------------------------------------------

  WARNING 04: minimum elevation drop used for Conduit WS02004404WS02004405
  WARNING 03: negative offset ignored for Link YS02001904YS02001907
  
  *********************************************************
  NOTE: The summary statistics displayed in this report are
  based on results found at every computational time step,  
  not just on results from each reporting time step.
  *********************************************************
  
  ****************
  Analysis Options
  ****************
  Flow Units ............... LPS
  Process Models:
    Rainfall/Runoff ........ YES
    RDII ................... NO
    Snowmelt ............... NO
    Groundwater ............ NO
    Flow Routing ........... YES
    Ponding Allowed ........ NO
    Water Quality .......... NO
  Infiltration Method ...... HORTON
  Flow Routing Method ...... DYNWAVE
  Surcharge Method ......... EXTRAN
  Starting Date ............ 08/28/2015 08:00:00
  Ending Date .............. 08/28/2015 15:50:00
  Antecedent Dry Days ...... 8.0
  Report Time Step ......... 00:01:00
  Wet Time Step ............ 00:01:00
  Dry Time Step ............ 00:01:00
  Routing Time Step ........ 5.00 sec
  Variable Time Step ....... YES
  Maximum Trials ........... 8
  Number of Threads ........ 4
  Head Tolerance ........... 0.001500 m
  
  
  **************************        Volume         Depth
  Runoff Quantity Continuity     hectare-m            mm
  **************************     ---------       -------
  Total Precipitation ......         5.556        12.164
  Evaporation Loss .........         0.000         0.000
  Infiltration Loss ........         1.427         3.124
  Surface Runoff ...........         3.072         6.726
  Final Storage ............         1.058         2.316
  Continuity Error (%) .....        -0.016
  
  
  **************************        Volume        Volume
  Flow Routing Continuity        hectare-m      10^6 ltr
  **************************     ---------     ---------
  Dry Weather Inflow .......         0.616         6.165
  Wet Weather Inflow .......         3.071        30.709
  Groundwater Inflow .......         0.000         0.000
  RDII Inflow ..............         0.000         0.000
  External Inflow ..........         0.102         1.024
  External Outflow .........         1.967        19.673
  Flooding Loss ............         1.303        13.033
  Evaporation Loss .........         0.000         0.000
  Exfiltration Loss ........         0.000         0.000
  Initial Stored Volume ....         0.076         0.761
  Final Stored Volume ......         0.652         6.524
  Continuity Error (%) .....        -1.482
  
  
  *************************
  Highest Continuity Errors
  *************************
  Node HS02004842 (16.24%)
  Node YS02001884 (11.41%)
  Node JK-storage (-6.35%)
  Node YS02001774 (3.67%)
  Node YSB1171 (3.12%)
  
  
  ***************************
  Time-Step Critical Elements
  ***************************
  Link 3 (48.28%)
  Link WS02006252WS02006251 (42.10%)
  Link WS02006238WS02006235 (2.89%)
  Link WS02006280WS02006229 (1.46%)
  
  
  ********************************
  Highest Flow Instability Indexes
  ********************************
  Link YS02163301YS02001633 (39)
  Link YS02163601YS02164001 (39)
  Link YS02001629YS02163301 (39)
  Link YS02001619YS02001622 (38)
  Link WS02006113WS02006111 (36)
  
  
  *************************
  Routing Time Step Summary
  *************************
  Minimum Time Step           :     0.20 sec
  Average Time Step           :     0.79 sec
  Maximum Time Step           :     5.00 sec
  Percent in Steady State     :    -0.00
  Average Iterations per Step :     4.48
  Percent Not Converging      :    20.23
  
  
  ***************************
  Subcatchment Runoff Summary
  ***************************
  
  ------------------------------------------------------------------------------------------------------------------------------
                            Total      Total      Total      Total     Imperv       Perv      Total       Total     Peak  Runoff
                           Precip      Runon       Evap      Infil     Runoff     Runoff     Runoff      Runoff   Runoff   Coeff
  Subcatchment                 mm         mm         mm         mm         mm         mm         mm    10^6 ltr      LPS
  ------------------------------------------------------------------------------------------------------------------------------
  sub0                      12.16       0.00       0.00       0.85      10.05       0.00      10.05        0.01     1.91   0.826
  sub1                      12.16       0.00       0.00       1.34       9.56       0.00       9.56        0.06    14.15   0.786
  sub2                      12.16       0.00       0.00       4.50       6.75       0.00       6.75        0.06    13.75   0.555
  sub3                      12.16       0.00       0.00       4.50       6.71       0.00       6.71        0.15    32.07   0.552
  sub4                      12.16       0.00       0.00       1.34       9.40       0.00       9.40        0.20    40.20   0.773
  sub5                      12.16       0.00       0.00       0.85       9.99       0.00       9.99        0.11    25.19   0.822
  sub7                      12.16       0.00       0.00       1.09       9.81       0.00       9.81        0.03     7.55   0.807
  sub8                      12.16       0.00       0.00       1.09       9.80       0.00       9.80        0.06    14.17   0.806
  sub9                      12.16       0.00       0.00       1.09       9.80       0.00       9.80        0.05    10.64   0.806
  sub10                     12.16       0.00       0.00       0.97       9.89       0.00       9.89        0.11    24.40   0.813
  sub11                     12.16       0.00       0.00       0.97       9.91       0.00       9.91        0.12    26.15   0.815
  sub12                     12.16       0.00       0.00       1.58       9.39       0.00       9.39        0.08    19.06   0.772
  sub14                     12.16       0.00       0.00       1.09       9.80       0.00       9.80        0.09    21.02   0.805
  sub15                     12.16       0.00       0.00       3.65       7.53       0.00       7.53        0.13    29.11   0.619
  sub16                     12.16       0.00       0.00       4.01       7.23       0.00       7.23        0.08    17.47   0.594
  sub17                     12.16       0.00       0.00       3.89       7.34       0.00       7.34        0.06    14.47   0.603
  sub22                     12.16       0.00       0.00       5.23       6.14       0.00       6.14        0.39    88.27   0.505
  sub23                     12.16       0.00       0.00       4.50       6.79       0.00       6.79        0.32    73.89   0.558
  sub60                     12.16       0.00       0.00       1.46       7.71       0.00       7.71        2.34   297.17   0.634
  sub61                     12.16       0.00       0.00       2.07       7.87       0.00       7.87        2.43   359.80   0.647
  sub62                     12.16       0.00       0.00       0.97       8.55       0.00       8.55        2.63   372.87   0.703
  sub63                     12.16       0.00       0.00       3.53       6.89       0.00       6.89        2.09   327.80   0.567
  sub64                     12.16       0.00       0.00       1.82       7.40       0.00       7.40        2.25   282.66   0.608
  sub65                     12.16       0.00       0.00       1.58       7.52       0.00       7.52        2.31   287.20   0.618
  sub66                     12.16       0.00       0.00       3.53       6.36       0.00       6.36        1.95   257.27   0.523
  sub67                     12.16       0.00       0.00       0.97       9.05       0.00       9.05        2.79   452.90   0.744
  sub68                     12.16       0.00       0.00       1.70       8.28       0.00       8.28        2.55   391.99   0.681
  sub69                     12.16       0.00       0.00       1.82       8.61       0.00       8.61        2.01   355.79   0.708
  sub70                     12.16       8.79       0.00       7.03      11.43       0.10      11.53        2.64   335.00   0.550
  sub71                     12.16       0.00       0.00       0.97       8.31       0.00       8.31        1.96   263.63   0.683
  sub72                     12.16       0.00       0.00       0.85       6.56       0.00       6.56        1.34   129.40   0.540
  sub73                     12.16      11.23       0.00       7.88      12.47       0.08      12.54        2.95   300.52   0.536
  sub74                     12.16       0.00       0.00       9.12       2.57       0.00       2.57        1.03   189.59   0.211
  
  
  ******************
  Node Depth Summary
  ******************
  
  ---------------------------------------------------------------------------------
                                 Average  Maximum  Maximum  Time of Max    Reported
                                   Depth    Depth      HGL   Occurrence   Max Depth
  Node                 Type       Meters   Meters   Meters  days hr:min      Meters
  ---------------------------------------------------------------------------------
  WS02001211           JUNCTION     0.63     0.77     5.60     0  03:52        0.77
  WS02001212           JUNCTION     0.36     0.48     5.54     0  03:53        0.48
  WS02001213           JUNCTION     0.60     0.72     5.49     0  03:53        0.72
  WS02003069           JUNCTION     0.44     0.55     5.13     0  02:53        0.55
  WS02003072           JUNCTION     0.51     0.61     4.98     0  02:54        0.61
  WS02003073           JUNCTION     0.30     0.37     4.44     0  02:54        0.37
  WS02003060           JUNCTION     0.39     0.48     5.42     0  02:52        0.48
  WS02003066           JUNCTION     0.25     0.33     5.88     0  03:04        0.33
  WS02003059           JUNCTION     0.67     0.78     5.46     0  03:53        0.78
  WS02003067           JUNCTION     0.60     0.75     6.07     0  03:04        0.75
  WS02004401           JUNCTION     0.71     0.98     6.98     0  03:02        0.98
  WS02004402           JUNCTION     0.74     1.00     6.96     0  03:02        1.00
  WS02004403           JUNCTION     0.76     1.00     6.93     0  03:02        1.00
  WS02004404           JUNCTION     0.84     1.06     6.91     0  03:02        1.06
  WS02004406           JUNCTION     0.84     1.04     6.87     0  03:02        1.03
  WS02004409           JUNCTION     0.53     0.76     6.53     0  03:03        0.76
  WS02004410           JUNCTION     0.55     0.77     6.49     0  03:04        0.77
  WS02004411           JUNCTION     0.56     0.77     6.45     0  03:04        0.77
  WS02004412           JUNCTION     0.57     0.77     6.41     0  03:04        0.77
  WS02004413           JUNCTION     0.73     0.92     6.39     0  03:04        0.92
  WS02004405           JUNCTION     0.83     1.05     6.90     0  03:02        1.05
  WS02006109           JUNCTION     0.80     1.11     7.73     0  03:00        1.09
  WS02006110           JUNCTION     0.78     1.02     7.61     0  02:59        1.01
  WS02006111           JUNCTION     0.23     0.37     7.07     0  03:02        0.37
  WS02006112           JUNCTION     0.89     1.20     7.08     0  02:31        1.20
  WS02006113           JUNCTION     0.36     0.51     7.41     0  03:01        0.51
  WS02006115           JUNCTION     0.61     0.90     7.04     0  03:02        0.90
  WS02006116           JUNCTION     0.69     0.97     7.01     0  03:02        0.97
  WS02006230           JUNCTION     0.79     1.18     7.92     0  03:00        1.18
  WS02006231           JUNCTION     0.53     0.83     7.96     0  02:59        0.83
  WS02006232           JUNCTION     0.67     0.96     8.00     0  03:00        0.95
  WS02006234           JUNCTION     0.59     0.87     8.02     0  02:59        0.87
  WS02006235           JUNCTION     0.62     0.89     8.06     0  02:59        0.89
  WS02006238           JUNCTION     0.64     0.92     8.07     0  02:59        0.91
  WS02006240           JUNCTION     0.54     0.82     8.11     0  03:00        0.82
  WS02006242           JUNCTION     0.59     0.87     8.14     0  03:00        0.87
  WS02006243           JUNCTION     0.47     0.76     8.18     0  03:00        0.76
  WS02006245           JUNCTION     0.45     0.72     8.21     0  03:00        0.72
  WS02006247           JUNCTION     0.46     0.99     8.49     0  02:23        0.72
  WS02006248           JUNCTION     0.41     0.66     8.24     0  03:00        0.66
  WS02006249           JUNCTION     0.43     0.66     8.26     0  03:00        0.66
  WS02006239           JUNCTION     0.60     0.88     8.08     0  02:59        0.87
  WS02006251           JUNCTION     0.43     0.71     8.38     0  03:00        0.71
  WS02006252           JUNCTION     0.37     0.59     8.84     0  03:49        0.59
  WS02006253           JUNCTION     0.45     0.74     8.39     0  03:00        0.74
  WS02006256           JUNCTION     1.08     1.21     8.15     0  02:40        1.21
  WS02004138           JUNCTION     0.14     0.19     7.44     0  03:50        0.19
  WS02004407           JUNCTION     0.24     0.33     6.64     0  03:02        0.33
  WS02006228           JUNCTION     0.81     1.18     7.83     0  03:01        1.17
  WS02006229           JUNCTION     0.79     1.19     7.88     0  03:01        1.19
  WS02006280           JUNCTION     0.07     0.19     8.46     0  03:02        0.19
  WS02006284           JUNCTION     0.38     0.55     8.95     0  03:02        0.55
  WS02006287           JUNCTION     0.11     0.28     9.24     0  03:01        0.28
  WSF200               JUNCTION     0.24     0.34     5.57     0  03:06        0.34
  HS02004901           JUNCTION     0.13     0.28    10.10     0  03:01        0.28
  HS02004881           JUNCTION     0.01     0.04     9.07     0  03:01        0.04
  HS02004876           JUNCTION     0.05     0.12     9.15     0  03:01        0.12
  HS02004870           JUNCTION     0.02     0.06     9.35     0  03:01        0.06
  HS02004862           JUNCTION     0.02     0.07     9.46     0  03:01        0.07
  HS02004856           JUNCTION     0.08     0.13     9.55     0  03:01        0.13
  HS02004852           JUNCTION     0.01     0.05     9.56     0  03:01        0.05
  HS02004848           JUNCTION     0.01     0.05     9.65     0  03:01        0.05
  HS02004842           JUNCTION     0.33     0.38     9.65     0  03:01        0.38
  HS02004837           JUNCTION     0.03     0.07     9.65     0  03:01        0.07
  HS02004830           JUNCTION     0.04     0.08     9.55     0  03:01        0.08
  HS02004824           JUNCTION     0.03     0.06     9.46     0  03:01        0.06
  HS02004817           JUNCTION     0.45     0.60     9.44     0  03:01        0.60
  HS02004807           JUNCTION     0.13     0.27     9.44     0  03:01        0.27
  HS02004802           JUNCTION     0.17     0.30     9.43     0  03:01        0.30
  HS02004799           JUNCTION     0.13     0.33     9.54     0  03:01        0.33
  HS02004792           JUNCTION     0.04     0.14     9.66     0  03:01        0.14
  HS02004788           JUNCTION     0.03     0.10    10.00     0  03:01        0.10
  HS02004785           JUNCTION     0.05     0.17    10.07     0  03:01        0.17
  HS02004777           JUNCTION     0.16     0.30    10.10     0  03:01        0.30
  HS02004770           JUNCTION     0.13     0.27    10.10     0  03:01        0.27
  HS02004480           JUNCTION     0.09     0.26     9.50     0  03:01        0.26
  HS02004479           JUNCTION     0.13     0.30     9.50     0  03:01        0.30
  HS02004478           JUNCTION     0.07     0.18     9.41     0  03:01        0.18
  YS02001745           JUNCTION     0.69     0.87     8.39     0  03:25        0.87
  YS02001748           JUNCTION     1.07     2.27     9.35     0  02:44        1.91
  YS02001751           JUNCTION     1.26     2.05     8.93     0  02:44        1.91
  YS02001754           JUNCTION     1.51     1.97     8.58     0  02:45        1.93
  YS02001762           JUNCTION     1.71     2.03     8.43     0  03:24        2.01
  YS02001765           JUNCTION     1.66     1.98     8.43     0  03:26        1.96
  YS02001767           JUNCTION     1.63     1.93     8.42     0  03:27        1.92
  YS02001770           JUNCTION     1.62     1.91     8.40     0  03:33        1.90
  YS02001774           JUNCTION     1.69     1.97     8.40     0  02:44        1.96
  YS02001779           JUNCTION     1.44     1.68     8.37     0  02:39        1.68
  YS02001882           JUNCTION     0.54     1.63     8.35     0  02:53        1.60
  YS02001884           JUNCTION     0.64     1.73     8.34     0  02:53        1.69
  YS02001759           JUNCTION     1.74     2.07     8.43     0  03:09        2.05
  YS02001887           JUNCTION     0.71     1.80     8.33     0  02:53        1.78
  YS02001890           JUNCTION     0.74     1.81     8.32     0  02:53        1.80
  YS02001898           JUNCTION     0.51     1.57     8.30     0  02:53        1.54
  YS02001901           JUNCTION     0.63     1.68     8.29     0  02:53        1.66
  YS02001904           JUNCTION     0.61     1.64     8.27     0  02:53        1.63
  YS02001907           JUNCTION     0.94     1.96     8.25     0  02:53        1.96
  YS02001910           JUNCTION     0.73     1.78     8.29     0  02:54        1.77
  YS02001915           JUNCTION     0.53     1.59     8.31     0  02:55        1.58
  YS02001918           JUNCTION     0.27     1.27     8.34     0  02:54        1.24
  YS02001619           JUNCTION     1.23     1.61     8.54     0  02:35        1.49
  YS02001629           JUNCTION     1.58     1.85     8.40     0  02:38        1.85
  YS02001641           JUNCTION     1.68     1.94     8.37     0  03:15        1.93
  YS02001644           JUNCTION     1.68     1.92     8.35     0  02:41        1.92
  YS02001652           JUNCTION     1.52     2.16     8.76     0  03:02        2.05
  YS02001655           JUNCTION     1.29     2.20     9.05     0  02:39        1.96
  YS02001920           JUNCTION     0.37     1.35     8.36     0  02:54        1.31
  YS02001923           JUNCTION     0.21     1.11     8.37     0  02:54        1.06
  YS02001926           JUNCTION     0.26     0.92     8.37     0  02:54        0.90
  YS02001929           JUNCTION     0.15     0.69     8.39     0  02:54        0.66
  YS02001658           JUNCTION     1.02     2.30     9.44     0  02:39        1.93
  YS02001661           JUNCTION     0.79     2.46     9.86     0  03:00        1.97
  YS02001664           JUNCTION     0.35     0.57     8.49     0  02:53        0.56
  YS02001622           JUNCTION     1.25     1.62     8.52     0  02:38        1.49
  YS02001633           JUNCTION     1.67     1.97     8.42     0  02:43        1.93
  YS02001649           JUNCTION     1.72     2.05     8.44     0  02:39        2.05
  YS02001757           JUNCTION     1.84     2.17     8.43     0  03:27        2.16
  YS02001895           JUNCTION     0.51     1.56     8.31     0  02:53        1.54
  YS02001625           JUNCTION     1.53     1.78     8.38     0  02:39        1.78
  YS02163301           JUNCTION     1.61     1.91     8.42     0  02:43        1.87
  YS02163601           JUNCTION     1.72     2.01     8.41     0  02:43        1.98
  YS02164001           JUNCTION     1.66     1.93     8.39     0  02:43        1.91
  YS02001647           JUNCTION     1.51     1.83     8.44     0  02:41        1.80
  YSB1154              JUNCTION     0.27     0.45     9.51     0  03:01        0.45
  YSB6556              JUNCTION     0.16     0.34     9.51     0  03:01        0.34
  YSB1174              JUNCTION     0.22     0.40     9.51     0  03:01        0.40
  YSB1171              JUNCTION     0.42     0.60     9.51     0  03:01        0.60
  YS02006553           JUNCTION     0.94     1.96     8.25     0  02:57        1.96
  YS02006561           JUNCTION     0.31     1.09     7.75     0  02:53        1.07
  YS02006556           JUNCTION     0.91     1.92     8.23     0  02:57        1.91
  YS02006558           JUNCTION     0.95     1.96     8.23     0  03:00        1.95
  YS02001783           JUNCTION     0.54     1.55     7.69     0  02:43        1.46
  YS02001784           JUNCTION     0.56     1.78     7.85     0  02:43        1.41
  YS02001786           JUNCTION     0.50     1.92     7.95     0  02:43        1.25
  YS02001788           JUNCTION     0.44     1.85     7.83     0  02:43        1.12
  YS02001790           JUNCTION     0.56     1.75     7.40     0  02:43        1.28
  YS02001791           JUNCTION     0.55     1.94     7.41     0  04:50        1.27
  YS02001793           JUNCTION     0.78     3.60     8.43     0  04:48        1.80
  WS02004139           JUNCTION     0.57     0.71     5.62     0  03:52        0.71
  WSC                  OUTFALL      0.30     0.37     1.04     0  02:55        0.37
  3                    OUTFALL      0.11     0.21     6.21     0  02:40        0.21
  4                    OUTFALL      0.03     0.16     7.16     0  03:00        0.16
  5                    OUTFALL      0.00     0.00     5.00     0  00:00        0.00
  JK-storage           STORAGE      3.15     5.80     6.60     0  02:44        5.80
  CC-storage           STORAGE      1.06     1.37     8.37     0  03:29        1.37
  XR-storage           STORAGE      7.43     7.72     5.72     0  02:18        7.72
  
  
  *******************
  Node Inflow Summary
  *******************
  
  -------------------------------------------------------------------------------------------------
                                  Maximum  Maximum                  Lateral       Total        Flow
                                  Lateral    Total  Time of Max      Inflow      Inflow     Balance
                                   Inflow   Inflow   Occurrence      Volume      Volume       Error
  Node                 Type           LPS      LPS  days hr:min    10^6 ltr    10^6 ltr     Percent
  -------------------------------------------------------------------------------------------------
  WS02001211           JUNCTION      7.35   376.23     0  03:50       0.207        5.88       0.522
  WS02001212           JUNCTION      0.00   368.68     0  03:51           0        5.85       0.281
  WS02001213           JUNCTION      0.00   365.97     0  03:52           0        5.83       0.344
  WS02003069           JUNCTION      0.32   847.94     0  02:53     0.00902        14.7       0.181
  WS02003072           JUNCTION      0.00   847.70     0  02:53           0        14.6       0.227
  WS02003073           JUNCTION      1.82   849.36     0  02:54      0.0514        14.6       0.250
  WS02003060           JUNCTION     16.53   847.90     0  02:52       0.466        14.7       0.174
  WS02003066           JUNCTION      0.00   669.10     0  03:04           0        8.44       0.052
  WS02003059           JUNCTION      0.00   364.45     0  03:52           0        5.82       0.601
  WS02003067           JUNCTION      0.00   668.96     0  03:04           0        8.45       0.111
  WS02004401           JUNCTION      0.00   671.67     0  03:02           0        8.68       0.250
  WS02004402           JUNCTION      0.00   671.49     0  03:02           0        8.66       0.236
  WS02004403           JUNCTION      0.00   670.58     0  03:03           0        8.64       0.214
  WS02004404           JUNCTION      0.16   670.46     0  03:03     0.00457        8.63       0.161
  WS02004406           JUNCTION      0.00   670.61     0  03:03           0        8.59       0.392
  WS02004409           JUNCTION      0.00   670.15     0  03:03           0        8.55       0.192
  WS02004410           JUNCTION      0.00   669.80     0  03:03           0        8.53       0.216
  WS02004411           JUNCTION      0.00   669.39     0  03:03           0        8.52       0.221
  WS02004412           JUNCTION      0.00   669.19     0  03:04           0         8.5       0.239
  WS02004413           JUNCTION      0.00   669.00     0  03:04           0        8.48       0.353
  WS02004405           JUNCTION      0.04   670.54     0  03:02     0.00107        8.61       0.240
  WS02006109           JUNCTION      1.23   660.32     0  03:02      0.0347        8.74       0.243
  WS02006110           JUNCTION      0.00   660.32     0  03:02           0        8.72       0.230
  WS02006111           JUNCTION      0.00   693.39     0  03:00           0        8.69       0.053
  WS02006112           JUNCTION     14.47   675.78     0  03:02      0.0629        8.75       0.338
  WS02006113           JUNCTION      0.00   661.37     0  03:01           0         8.7       0.114
  WS02006115           JUNCTION      0.00   675.77     0  03:02           0        8.72       0.235
  WS02006116           JUNCTION      0.00   673.52     0  03:02           0         8.7       0.222
  WS02006230           JUNCTION     10.28   399.18     0  04:32        0.29        6.86       0.182
  WS02006231           JUNCTION      0.00   389.94     0  04:31           0        6.58       0.198
  WS02006232           JUNCTION      0.00   389.93     0  04:31           0         6.6       0.250
  WS02006234           JUNCTION      0.00   391.53     0  04:31           0        6.61       0.125
  WS02006235           JUNCTION      0.00   391.14     0  04:31           0        6.65       0.167
  WS02006238           JUNCTION      0.00   309.31     0  04:56           0        4.53       0.173
  WS02006240           JUNCTION      0.00   328.08     0  04:52           0        4.52       0.265
  WS02006242           JUNCTION      0.00   336.59     0  04:51           0        4.52       0.323
  WS02006243           JUNCTION      0.00   344.31     0  04:51           0        4.51      -0.112
  WS02006245           JUNCTION      0.00   347.64     0  04:51           0        4.52       0.232
  WS02006247           JUNCTION      0.00   350.96     0  04:51           0        4.53       0.155
  WS02006248           JUNCTION      0.00   354.75     0  04:51           0        4.53       0.060
  WS02006249           JUNCTION      0.00   479.59     0  03:00           0        5.19       0.233
  WS02006239           JUNCTION      0.00   318.14     0  04:52           0        4.52       0.243
  WS02006251           JUNCTION      0.08   480.00     0  02:59     0.00217        5.23       0.168
  WS02006252           JUNCTION      0.00   400.00     0  02:50           0        4.84       0.009
  WS02006253           JUNCTION      1.91    81.00     0  03:01     0.00814       0.392       0.960
  WS02006256           JUNCTION      0.00   600.00     0  04:20           0        6.56       0.047
  WS02004138           JUNCTION      0.00   379.99     0  04:30           0         5.7       0.068
  WS02004407           JUNCTION      0.00   670.59     0  03:02           0        8.56       0.088
  WS02006228           JUNCTION      0.00   659.12     0  03:02           0        8.72       0.175
  WS02006229           JUNCTION      0.00   657.43     0  03:02           0        8.74       0.140
  WS02006280           JUNCTION      0.00   375.54     0  03:02           0        1.89       0.004
  WS02006284           JUNCTION      0.10   375.54     0  03:02      0.0027        1.89       0.064
  WS02006287           JUNCTION      0.00   375.27     0  03:01           0        1.89       0.037
  WSF200               JUNCTION      0.00   669.14     0  03:04           0        8.43       0.051
  HS02004901           JUNCTION     17.47    17.47     0  03:01      0.0757      0.0759       2.380
  HS02004881           JUNCTION      7.55    79.19     0  03:01      0.0331       0.357       0.093
  HS02004876           JUNCTION     14.15    72.10     0  03:01      0.0636       0.324       0.171
  HS02004870           JUNCTION     14.17    58.27     0  03:01      0.0626       0.261       0.043
  HS02004862           JUNCTION     13.95    44.46     0  03:01      0.0685       0.198       0.089
  HS02004856           JUNCTION     10.64    30.79     0  03:01      0.0471       0.131       1.117
  HS02004852           JUNCTION      0.00    20.44     0  03:01           0       0.084       0.069
  HS02004848           JUNCTION     32.07    32.07     0  03:01       0.151       0.151       0.033
  HS02004842           JUNCTION      0.00    11.42     0  03:01           0      0.0801      19.389
  HS02004837           JUNCTION     30.75    41.91     0  03:01       0.288       0.355       0.230
  HS02004830           JUNCTION      0.15    41.84     0  03:01     0.00423       0.346       0.359
  HS02004824           JUNCTION     40.25    81.79     0  03:01       0.197       0.542       0.100
  HS02004817           JUNCTION      0.60    82.18     0  03:01      0.0169       0.558       3.079
  HS02004807           JUNCTION     26.15   107.24     0  03:01       0.115       0.657       0.656
  HS02004802           JUNCTION      0.00   106.49     0  03:01           0       0.653       0.617
  HS02004799           JUNCTION     21.02   227.51     0  03:01      0.0932        1.06       0.236
  HS02004792           JUNCTION     88.55   207.32     0  03:01       0.396       0.966       0.043
  HS02004788           JUNCTION     30.78   119.37     0  03:01       0.177       0.571       0.069
  HS02004785           JUNCTION      0.15    89.79     0  03:01     0.00423       0.396       0.125
  HS02004777           JUNCTION      0.03    90.24     0  03:01    0.000846       0.397       1.326
  HS02004770           JUNCTION     73.89    90.93     0  03:01       0.324       0.398       0.787
  HS02004480           JUNCTION      0.00   269.28     0  03:01           0        1.25       0.099
  HS02004479           JUNCTION      0.00    42.83     0  03:02           0       0.204       0.360
  HS02004478           JUNCTION      0.00   375.17     0  03:01           0        1.89       0.018
  YS02001745           JUNCTION    297.18   297.18     0  03:01        2.34        2.34       0.478
  YS02001748           JUNCTION      0.04   462.63     0  02:44     0.00127        2.33       1.007
  YS02001751           JUNCTION      0.01   314.33     0  02:37     0.00031         2.3       1.031
  YS02001754           JUNCTION      0.26   309.61     0  03:01     0.00733        2.29       1.097
  YS02001762           JUNCTION      0.00   343.29     0  02:56           0        1.96       1.081
  YS02001765           JUNCTION      0.00   343.26     0  02:56           0        1.96       1.248
  YS02001767           JUNCTION      0.54   343.31     0  02:56      0.0151        1.98       1.832
  YS02001770           JUNCTION    373.02   373.02     0  03:01        2.63        2.66       1.191
  YS02001774           JUNCTION      0.00   268.06     0  03:32           0       0.682       3.813
  YS02001779           JUNCTION      0.01   268.45     0  03:32    0.000141       0.649       2.383
  YS02001882           JUNCTION      0.00    32.66     0  02:47           0      0.0166      15.379
  YS02001884           JUNCTION      0.00    46.98     0  02:45           0      0.0532      12.877
  YS02001759           JUNCTION    359.84   675.46     0  02:56        2.43        4.34       0.530
  YS02001887           JUNCTION    453.35   453.36     0  03:01         2.8        2.83       0.300
  YS02001890           JUNCTION      0.00   453.57     0  03:01           0        2.79       0.330
  YS02001898           JUNCTION      0.00   453.53     0  03:00           0        2.77       0.115
  YS02001901           JUNCTION      0.00   453.68     0  03:00           0        2.77       0.248
  YS02001904           JUNCTION      0.00   453.70     0  03:01           0        2.77       0.225
  YS02001907           JUNCTION      0.00   881.93     0  03:00           0        6.12       0.398
  YS02001910           JUNCTION      0.00   460.70     0  02:55           0        3.37       0.348
  YS02001915           JUNCTION    263.65   460.44     0  02:55        1.96         3.4       0.178
  YS02001918           JUNCTION      0.00   222.20     0  02:55           0        1.44       0.129
  YS02001619           JUNCTION    257.27   257.27     0  03:01        1.95        1.95       0.622
  YS02001629           JUNCTION      0.00   207.19     0  02:50           0        1.63       1.775
  YS02001641           JUNCTION      0.00   439.64     0  02:50           0        3.85       0.547
  YS02001644           JUNCTION    282.70   978.58     0  03:29        2.25        7.82       0.335
  YS02001652           JUNCTION      0.00   374.10     0  03:02           0        2.04       1.149
  YS02001655           JUNCTION      0.15   376.48     0  02:31     0.00434        2.06       1.247
  YS02001920           JUNCTION      2.87   221.91     0  02:55      0.0809        1.43       0.203
  YS02001923           JUNCTION      0.04   245.55     0  02:55     0.00106        1.34       0.045
  YS02001926           JUNCTION      0.05   208.53     0  02:55     0.00147        1.34       0.250
  YS02001929           JUNCTION    129.40   129.40     0  03:01        1.34        1.34       0.040
  YS02001658           JUNCTION      0.00   640.74     0  02:39           0        2.09       1.078
  YS02001661           JUNCTION      0.00   695.91     0  02:55           0        2.78      -0.042
  YS02001664           JUNCTION    327.80   360.44     0  02:53        2.09        2.78       0.259
  YS02001622           JUNCTION      0.00   257.57     0  03:01           0        1.94       1.662
  YS02001633           JUNCTION    287.40   439.89     0  02:50        2.32         3.9       0.830
  YS02001649           JUNCTION      0.00   939.78     0  02:51           0         4.8       0.781
  YS02001757           JUNCTION      0.00  1790.35     0  02:51           0        9.54       0.977
  YS02001895           JUNCTION      0.00   453.60     0  03:01           0        2.78       0.176
  YS02001625           JUNCTION      0.00   257.35     0  03:01           0         1.9       2.098
  YS02163301           JUNCTION      0.00   207.25     0  02:40           0        1.61       1.507
  YS02163601           JUNCTION      0.11   440.00     0  02:50      0.0031        3.87       0.782
  YS02164001           JUNCTION      0.00   439.86     0  02:50           0        3.85       0.523
  YS02001647           JUNCTION      0.00   668.89     0  02:50           0        3.74       0.753
  YSB1154              JUNCTION     25.19    25.19     0  03:01       0.113       0.114       1.286
  YSB6556              JUNCTION      0.00    24.91     0  03:01           0       0.115       1.100
  YSB1174              JUNCTION     19.06    19.06     0  03:01      0.0821      0.0827       1.581
  YSB1171              JUNCTION      0.00    43.19     0  03:01           0       0.203       3.220
  YS02006553           JUNCTION      0.00   667.17     0  03:17           0         5.9       0.262
  YS02006561           JUNCTION      0.00   964.20     0  03:01           0        8.42       0.008
  YS02006556           JUNCTION      0.00   667.21     0  03:17           0        5.91       0.190
  YS02006558           JUNCTION    392.87   964.62     0  03:01        2.57        8.45       0.064
  YS02001783           JUNCTION      0.00   964.21     0  03:01           0        8.42       0.029
  YS02001784           JUNCTION      1.06   965.25     0  03:01      0.0299        8.45       0.045
  YS02001786           JUNCTION      0.06   965.37     0  03:01     0.00159        8.45       0.040
  YS02001788           JUNCTION      0.07   965.29     0  03:00       0.002        8.45       0.024
  YS02001790           JUNCTION      0.15   965.46     0  03:00     0.00437        8.45       0.032
  YS02001791           JUNCTION      0.00   965.49     0  03:00           0        8.45       0.006
  YS02001793           JUNCTION      0.00   965.59     0  03:00           0        8.45       0.003
  WS02004139           JUNCTION      0.32   379.25     0  03:50     0.00905        5.71       0.559
  WSC                  OUTFALL       0.00   849.12     0  02:55           0        14.6       0.000
  3                    OUTFALL       0.00   522.98     0  02:40           0        4.41       0.000
  4                    OUTFALL       0.00   232.07     0  03:00           0       0.654       0.000
  5                    OUTFALL       0.00     0.00     0  00:00           0           0       0.000 ltr
  JK-storage           STORAGE       0.00   965.65     0  03:00           0         8.6      -5.973
  CC-storage           STORAGE       0.00  1790.06     0  02:51           0        8.61       0.751
  XR-storage           STORAGE     690.11   690.11     0  03:01        9.61        10.2      -0.000
  
  
  **********************
  Node Surcharge Summary
  **********************
  
  Surcharging occurs when water rises above the top of the highest conduit.
  ---------------------------------------------------------------------
                                               Max. Height   Min. Depth
                                   Hours       Above Crown    Below Rim
  Node                 Type      Surcharged         Meters       Meters
  ---------------------------------------------------------------------
  WS02004402           JUNCTION        0.01          0.000        1.740
  WS02004403           JUNCTION        0.02          0.003        2.027
  WS02004404           JUNCTION        0.74          0.064        2.716
  WS02004406           JUNCTION        0.41          0.035        2.415
  WS02004405           JUNCTION        0.54          0.050        2.750
  WS02006109           JUNCTION        2.69          0.289        1.531
  WS02006110           JUNCTION        0.92          0.114        1.736
  WS02006112           JUNCTION        1.16          0.201        1.479
  WS02006230           JUNCTION        0.58          0.096        1.474
  WS02006231           JUNCTION        0.81          0.124        1.406
  WS02006232           JUNCTION        2.67          0.257        1.223
  WS02006234           JUNCTION        0.84          0.148        1.092
  WS02006235           JUNCTION        1.72          0.182        1.108
  WS02006238           JUNCTION        2.11          0.204        1.226
  WS02006240           JUNCTION        0.82          0.108        1.282
  WS02006242           JUNCTION        1.56          0.145        0.675
  WS02006243           JUNCTION        0.33          0.046        0.724
  WS02006245           JUNCTION        0.20          0.011        0.839
  WS02006247           JUNCTION        0.22          0.280        0.480
  WS02006239           JUNCTION        1.21          0.136        1.154
  WS02006252           JUNCTION        2.13          0.193        0.907
  WS02006228           JUNCTION        2.54          0.348        1.852
  YS02001748           JUNCTION        5.05          1.190        0.000
  YS02001751           JUNCTION        5.22          1.051        0.149
  YS02001754           JUNCTION        5.39          0.925        0.225
  YS02001762           JUNCTION        5.64          1.029        0.121
  YS02001765           JUNCTION        5.61          0.976        0.124
  YS02001767           JUNCTION        5.58          0.931        0.099
  YS02001770           JUNCTION        5.57          0.880        0.040
  YS02001774           JUNCTION        5.63          0.975        0.075
  YS02001779           JUNCTION        5.38          0.680        0.000
  YS02001882           JUNCTION        0.77          0.635        0.195
  YS02001884           JUNCTION        0.80          0.665        0.205
  YS02001759           JUNCTION        5.66          1.068        0.142
  YS02001887           JUNCTION        0.89          0.747        0.203
  YS02001890           JUNCTION        0.92          0.760        0.000
  YS02001898           JUNCTION        0.73          0.538        0.202
  YS02001901           JUNCTION        0.86          0.679        0.191
  YS02001904           JUNCTION        0.83          0.641        0.209
  YS02001907           JUNCTION        1.49          0.950        0.000
  YS02001910           JUNCTION        0.97          0.782        0.318
  YS02001915           JUNCTION        0.76          0.592        0.408
  YS02001918           JUNCTION        0.51          0.273        0.537
  YS02001619           JUNCTION        5.21          0.610        0.000
  YS02001629           JUNCTION        5.23          0.470        0.000
  YS02001641           JUNCTION        5.62          0.935        0.165
  YS02001644           JUNCTION        5.62          0.920        0.000
  YS02001652           JUNCTION        5.41          1.130        0.000
  YS02001655           JUNCTION        5.24          1.200        0.000
  YS02001920           JUNCTION        0.55          0.352        0.788
  YS02001658           JUNCTION        5.09          1.300        0.000
  YS02001661           JUNCTION        0.20          1.390        0.000
  YS02001622           JUNCTION        5.24          0.620        0.000
  YS02001633           JUNCTION        5.60          0.949        0.111
  YS02001649           JUNCTION        5.64          1.050        0.000
  YS02001757           JUNCTION        5.74          1.172        0.038
  YS02001895           JUNCTION        0.74          0.564        0.186
  YS02001625           JUNCTION        5.49          0.780        0.000
  YS02163301           JUNCTION        5.58          0.905        0.125
  YS02163601           JUNCTION        5.64          1.008        0.072
  YS02164001           JUNCTION        5.61          0.933        0.167
  YS02001647           JUNCTION        5.43          0.827        0.073
  YS02006553           JUNCTION        1.55          0.963        0.227
  YS02006561           JUNCTION        0.64          0.289        0.861
  YS02006556           JUNCTION        1.20          0.879        0.471
  YS02006558           JUNCTION        1.15          0.859        0.541
  YS02001783           JUNCTION        1.17          0.747        0.853
  YS02001784           JUNCTION        1.24          0.979        0.511
  YS02001786           JUNCTION        1.17          1.115        0.315
  YS02001788           JUNCTION        1.16          1.052        0.428
  YS02001790           JUNCTION        2.02          0.952        0.205
  YS02001791           JUNCTION        2.20          1.143        0.777
  YS02001793           JUNCTION        2.53          2.600        0.000
  
  
  *********************
  Node Flooding Summary
  *********************
  
  Flooding refers to all water that overflows a node, whether it ponds or not.
  --------------------------------------------------------------------------
                                                             Total   Maximum
                                 Maximum   Time of Max       Flood    Ponded
                        Hours       Rate    Occurrence      Volume     Depth
  Node                 Flooded       LPS   days hr:min    10^6 ltr    Meters
  --------------------------------------------------------------------------
  YS02001748              0.01    137.76      0  02:44       0.000     0.000
  YS02001779              2.50    268.38      0  03:32       0.627     0.000
  YS02001890              0.01      3.97      0  02:53       0.000     0.000
  YS02001907              0.38    304.79      0  03:00       0.205     0.000
  YS02001619              0.01     47.52      0  02:39       0.000     0.000
  YS02001629              0.01     35.06      0  02:39       0.000     0.000
  YS02001644              4.63    978.41      0  03:29       5.793     0.000
  YS02001652              0.01     19.03      0  03:05       0.000     0.000
  YS02001655              0.01     37.46      0  02:41       0.000     0.000
  YS02001658              0.01    398.47      0  02:40       0.001     0.000
  YS02001661              0.01    175.17      0  03:05       0.001     0.000
  YS02001622              0.01     27.65      0  02:39       0.000     0.000
  YS02001649              0.09     49.46      0  03:05       0.005     0.000
  YS02001625              0.86    168.63      0  03:01       0.233     0.000
  YS02001793              0.01    330.49      0  04:48       0.000     0.000
  JK-storage              1.61    962.38      0  03:10       2.580     0.000
  XR-storage              5.26    585.65      0  03:01       3.586     0.000
  
  
  **********************
  Storage Volume Summary
  **********************
  
  --------------------------------------------------------------------------------------------------
                         Average     Avg  Evap Exfil       Maximum     Max    Time of Max    Maximum
                          Volume    Pcnt  Pcnt  Pcnt        Volume    Pcnt     Occurrence    Outflow
  Storage Unit           1000 m3    Full  Loss  Loss       1000 m3    Full    days hr:min        LPS
  --------------------------------------------------------------------------------------------------
  JK-storage               0.158      54     0     0         0.291     100       0  02:44     600.00
  CC-storage               2.949      19     0     0         3.827      24       0  03:29     400.00
  XR-storage               0.892      96     0     0         0.926     100       0  02:18     379.99
  
  
  ***********************
  Outfall Loading Summary
  ***********************
  
  -----------------------------------------------------------
                         Flow       Avg       Max       Total
                         Freq      Flow      Flow      Volume
  Outfall Node           Pcnt       LPS       LPS    10^6 ltr
  -----------------------------------------------------------
  WSC                   99.99    591.38    849.12      14.613
  3                     94.02    219.01    522.98       4.406
  4                     39.90     76.10    232.07       0.654
  5                      0.00      0.00      0.00       0.000
  -----------------------------------------------------------
  System                58.48    886.49   1381.05      19.673
  
  
  ********************
  Link Flow Summary
  ********************
  
  -----------------------------------------------------------------------------
                                 Maximum  Time of Max   Maximum    Max/    Max/
                                  |Flow|   Occurrence   |Veloc|    Full    Full
  Link                 Type          LPS  days hr:min     m/sec    Flow   Depth
  -----------------------------------------------------------------------------
  WS02003066WSF200     CONDUIT    669.14     0  03:04      2.93    0.11    0.26
  WS02006287WS02006284 CONDUIT    375.44     0  03:02      1.98    0.17    0.29
  WS02006284WS02006280 CONDUIT    375.54     0  03:02      2.22    0.16    0.27
  WS02006280WS02006229 CONDUIT    375.58     0  03:02      3.58    0.08    0.19
  WS02006229WS02006228 CONDUIT    659.12     0  03:02      1.31    2.18    1.00
  WS02006256WS02006235 CONDUIT    166.25     0  00:01      2.58    1.76    1.00
  WS02006253WS02006251 CONDUIT     86.78     0  03:01      0.46    0.26    1.00
  WS02006252WS02006251 CONDUIT    400.72     0  04:50      3.19    1.47    1.00
  WS02006251WS02006249 CONDUIT    479.59     0  03:00      1.26    1.38    0.97
  WS02006249WS02006248 CONDUIT    354.75     0  04:51      1.15    1.94    0.93
  WS02006248WS02006247 CONDUIT    350.96     0  04:51      1.11    0.76    0.97
  WS02006247WS02006245 CONDUIT    347.64     0  04:51      1.08    2.76    1.00
  WS02006245WS02006243 CONDUIT    344.31     0  04:51      1.10    1.02    1.00
  WS02006243WS02006242 CONDUIT    336.59     0  04:51      1.00    0.72    1.00
  WS02006242WS02006240 CONDUIT    328.08     0  04:52      0.94    1.30    1.00
  WS02006240WS02006239 CONDUIT    318.14     0  04:52      0.98    1.00    1.00
  WS02006239WS02006238 CONDUIT    309.31     0  04:56      0.88    0.99    1.00
  WS02006238WS02006235 CONDUIT    309.83     0  04:56      1.25    0.69    1.00
  WS02006235WS02006234 CONDUIT    391.53     0  04:31      1.04    4.13    1.00
  WS02006234WS02006232 CONDUIT    389.93     0  04:31      1.13    0.79    1.00
  WS02006232WS02006231 CONDUIT    389.94     0  04:31      1.06    0.82    1.00
  WS02006231WS02006230 CONDUIT    388.90     0  04:32      1.35    5.90    1.00
  WS02006230WS02006229 CONDUIT    398.89     0  04:32      1.04    8.88    1.00
  WS02006228WS02006109 CONDUIT    659.09     0  03:02      1.31    2.88    1.00
  WS02006116WS02004401 CONDUIT    671.67     0  03:02      0.86    0.93    0.98
  WS02006115WS02006116 CONDUIT    673.52     0  03:02      0.90    0.86    0.91
  WS02006113WS02006111 CONDUIT    693.39     0  03:00      2.59    0.83    0.54
  WS02006112WS02006115 CONDUIT    675.77     0  03:02      0.88    0.40    0.94
  WS02006111WS02006112 CONDUIT    663.11     0  03:02      1.72    0.32    0.72
  WS02006110WS02006113 CONDUIT    661.37     0  03:01      1.51    0.60    0.82
  WS02006109WS02006110 CONDUIT    660.32     0  03:02      1.31    1.27    1.00
  WS02004411WS02004412 CONDUIT    669.19     0  03:04      1.04    0.95    0.77
  WS02004401WS02004402 CONDUIT    671.49     0  03:02      0.86    0.81    0.99
  WS02004413WS02003067 CONDUIT    668.96     0  03:04      1.26    0.29    0.64
  WS02004412WS02004413 CONDUIT    669.00     0  03:04      0.95    0.45    0.84
  WS02004410WS02004411 CONDUIT    669.39     0  03:03      1.04    0.91    0.77
  WS02004409WS02004410 CONDUIT    669.80     0  03:03      1.04    0.87    0.76
  WS02004407WS02004409 CONDUIT    670.15     0  03:03      1.53    0.24    0.54
  WS02004406WS02004407 CONDUIT    670.59     0  03:02      1.21    0.30    0.67
  WS02004405WS02004406 CONDUIT    670.61     0  03:03      0.85    1.32    1.00
  WS02004404WS02004405 CONDUIT    670.50     0  03:02      0.85    6.57    1.00
  WS02004403WS02004404 CONDUIT    670.29     0  03:03      0.85    0.48    1.00
  WS02004402WS02004403 CONDUIT    670.58     0  03:03      0.85    0.96    1.00
  WS02004139WS02001211 CONDUIT    368.88     0  03:50      0.69    0.47    0.57
  WS02004138WS02004139 CONDUIT    378.93     0  03:50      2.94    0.08    0.42
  WS02003067WS02003066 CONDUIT    669.10     0  03:04      1.37    0.21    0.45
  WS02001213WS02003059 CONDUIT    364.45     0  03:52      0.65    0.60    0.74
  WS02001212WS02001213 CONDUIT    365.97     0  03:52      1.17    0.56    0.44
  WS02001211WS02001212 CONDUIT    368.68     0  03:51      0.73    0.28    0.62
  WS02003072WS02003073 CONDUIT    847.54     0  02:54      1.67    1.83    0.46
  WS02003069WS02003072 CONDUIT    847.70     0  02:53      1.57    0.41    0.48
  WS02003060WS02003069 CONDUIT    847.62     0  02:53      1.82    0.33    0.43
  WS02003059WS02003060 CONDUIT    364.23     0  03:54      0.80    0.24    0.63
  HS02004901HS02004770 CONDUIT     17.71     0  03:01      0.07    0.07    0.39
  HS02004876HS02004881 CONDUIT     71.90     0  03:01      0.92    0.76    0.11
  HS02004870HS02004876 CONDUIT     58.03     0  03:01      0.63    0.04    0.13
  HS02004842HS02004848 CONDUIT     11.42     0  03:01      0.05    0.01    0.30
  HS02004837HS02004842 CONDUIT     11.94     0  03:02      0.41    0.01    0.32
  HS02004830HS02004837 CONDUIT     41.69     0  03:01      0.56    0.04    0.11
  HS02004824HS02004830 CONDUIT     41.67     0  03:01      0.58    0.05    0.10
  HS02004817HS02004824 CONDUIT     81.58     0  03:01      0.25    0.04    0.47
  HS02004770HS02004777 CONDUIT     90.21     0  03:01      0.32    0.16    0.41
  HS02004799HS02004480 CONDUIT    226.98     0  03:01      0.78    0.29    0.42
  HS02004792HS02004799 CONDUIT    206.60     0  03:01      0.88    0.13    0.33
  HS02004788HS02004792 CONDUIT    118.94     0  03:01      1.01    0.08    0.17
  HS02004785HS02004788 CONDUIT     89.52     0  03:02      0.66    0.67    0.19
  HS02004777HS02004785 CONDUIT     89.64     0  03:01      0.38    0.11    0.33
  HS02004480HS02004478 CONDUIT    269.12     0  03:01      1.20    1.13    0.32
  HS02004479HS02004480 CONDUIT     44.17     0  03:02      0.23    0.04    0.40
  HS02004862HS02004870 CONDUIT     44.23     0  03:01      0.64    0.05    0.10
  HS02004848HS02004852 CONDUIT     20.44     0  03:01      0.44    0.02    0.07
  HS02004856HS02004862 CONDUIT     30.57     0  03:01      0.47    0.03    0.09
  HS02004852HS02004856 CONDUIT     20.26     0  03:01      0.24    0.02    0.12
  HS02004802HS02004478 CONDUIT    106.59     0  03:02      0.45    0.09    0.35
  HS02004478WS02006287 CONDUIT    375.27     0  03:01      1.68    0.11    0.25
  HS02004817HS02004807 CONDUIT     82.18     0  03:01      0.19    0.05    0.62
  HS02004807HS02004802 CONDUIT    106.49     0  03:01      0.38    0.20    0.40
  YS02001759YS02001757 CONDUIT    675.71     0  02:56      0.86    0.48    1.00
  YS02001762YS02001759 CONDUIT    343.20     0  02:56      0.44    0.40    1.00
  YS02001765YS02001762 CONDUIT    343.29     0  02:56      0.44    0.32    1.00
  YS02001770YS02001767 CONDUIT    342.77     0  02:56      0.44    1.36    1.00
  YS02001774YS02001770 CONDUIT    268.06     0  03:32      0.34    0.17    1.00
  YS02001779YS02001774 CONDUIT    268.45     0  03:32      0.34    0.14    1.00
  YS02001649YS02001757 CONDUIT    940.20     0  02:51      1.20    0.57    1.00
  YS02001767YS02001765 CONDUIT    343.26     0  02:56      0.44    0.43    1.00
  YS02006561YS02001783 CONDUIT    964.21     0  03:01      2.12    0.50    1.00
  YS02001783YS02001784 CONDUIT    964.19     0  03:01      1.92    1.33    1.00
  YS02001784YS02001785 CONDUIT    965.31     0  03:01      1.92    2.25    1.00
  YS02001788YS02001790 CONDUIT    965.30     0  03:00      2.32    0.71    1.00
  YS02001790YS02001791 CONDUIT    965.49     0  03:00      2.86    1.05    1.00
  YS02001791YS02001793 CONDUIT    965.59     0  03:00      5.65    0.41    1.00
  YS02001910YS02001907 CONDUIT    460.51     0  02:55      0.59    0.26    1.00
  YS02001786YS02001788 CONDUIT    965.22     0  03:00      2.23    1.86    1.00
  YS02001915YS02001910 CONDUIT    460.70     0  02:55      0.59    0.23    1.00
  YS02001918YS02001915 CONDUIT    222.65     0  02:55      0.44    0.12    1.00
  YS02001923YS02001920 CONDUIT    219.04     0  02:55      0.68    0.10    1.00
  YS02001926YS02001923 CONDUIT    245.52     0  02:55      0.79    0.35    0.91
  YS02001929YS02001926 CONDUIT    208.48     0  02:55      0.84    0.10    0.80
  YS02001920YS02001918 CONDUIT    222.20     0  02:55      0.67    0.21    1.00
  YS02001629YS02163301 CONDUIT    207.25     0  02:40      0.26    0.26    1.00
  YS02001619YS02001622 CONDUIT    257.57     0  03:01      0.61    0.38    1.00
  YS02001622YS02001625 CONDUIT    257.35     0  03:01      0.33    0.14    1.00
  YS02001625YS02001629 CONDUIT    207.19     0  02:50      0.26    0.10    1.00
  YS02163301YS02001633 CONDUIT    207.27     0  02:40      0.26    0.19    1.00
  YS02163601YS02164001 CONDUIT    439.86     0  02:50      0.56    0.39    1.00
  YS02164001YS02001641 CONDUIT    439.64     0  02:50      0.56    0.60    1.00
  YS02001641YS02001644 CONDUIT    439.74     0  02:50      0.56    1.42    1.00
  YS02001647YS02001649 CONDUIT    668.88     0  02:50      0.85    0.35    1.00
  YS02006553YS02006556 CONDUIT    667.21     0  03:17      0.85    0.57    1.00
  YS02006556YS02006558 CONDUIT    667.37     0  03:17      0.85    0.53    1.00
  YSB6556YSB1171       CONDUIT     24.82     0  03:03      0.09    0.03    0.67
  YS02001907YS02006553 CONDUIT    667.17     0  03:17      0.74    0.78    1.00
  YS02006558YS02006561 CONDUIT    964.20     0  03:01      3.41    2.13    1.00
  YS02001633YS02163601 CONDUIT    439.89     0  02:50      0.56    0.46    1.00
  YS02001644YS02001647 CONDUIT    668.89     0  02:50      0.85    0.39    1.00
  YS02001745YS02001748 CONDUIT    462.58     0  02:44      1.48    0.18    0.94
  YS02001748YS02001751 CONDUIT    314.32     0  02:37      1.05    0.16    1.00
  YS02001751YS02001754 CONDUIT    309.35     0  03:01      0.88    0.15    1.00
  YS02001754YS02001757 CONDUIT    309.87     0  03:01      0.39    0.12    1.00
  YS02001882YS02001884 CONDUIT     32.66     0  02:47      0.09    0.04    1.00
  YS02001884YS02001887 CONDUIT     46.98     0  02:45      0.06    0.06    1.00
  YS02001890YS02001895 CONDUIT    453.60     0  03:01      0.58    0.21    1.00
  YS02001895YS02001898 CONDUIT    453.53     0  03:00      0.58    0.79    1.00
  YS02001898YS02001901 CONDUIT    453.68     0  03:00      0.58    0.29    1.00
  YS02001901YS02001904 CONDUIT    453.70     0  03:01      0.58    0.70    1.00
  YS02001904YS02001907 CONDUIT    453.70     0  03:01      0.58    0.16    1.00
  YS02001887YS02001890 CONDUIT    453.57     0  03:01      0.58    0.78    1.00
  YS02001652YS02001649 CONDUIT    374.06     0  03:02      0.50    0.19    1.00
  YS02001655YS02001652 CONDUIT    374.10     0  03:02      0.93    0.18    1.00
  YS02001658YS02001655 CONDUIT    376.33     0  02:31      1.21    0.16    1.00
  YS02001661YS02001658 CONDUIT    640.74     0  02:39      1.56    0.25    1.00
  YS02001664YS02001661 CONDUIT    695.91     0  02:55      1.58    0.22    0.71
  YSB1154YSB6556       CONDUIT     24.91     0  03:01      0.18    0.04    0.56
  YSB1174YSB1171       CONDUIT     18.78     0  03:01      0.07    0.03    0.68
  YSB1171HS02004479    CONDUIT     42.83     0  03:02      0.54    0.03    0.53
  HS02004881HS02006253 CONDUIT     79.15     0  03:01      1.81    0.02    0.31
  YS02001793JiankangQianchi CONDUIT    965.65     0  03:00     14.37    0.08    1.00
  YS02001757CaochengTiaoxuchi CONDUIT   1790.06     0  02:51      2.39    0.79    1.00
  WSF200WS02003060     CONDUIT    669.06     0  03:05      2.00    0.15    0.34
  1                    CONDUIT    849.12     0  02:55      3.18    0.30    0.37
  2                    CONDUIT    232.07     0  03:00      6.06    0.56    0.53
  3                    CONDUIT    522.98     0  02:40      9.87    0.83    0.70
  4                    CONDUIT      0.00     0  00:00      0.00    0.00    0.00
  CC-Pump-1            PUMP       200.00     0  01:59              1.00
  CC-Pump-2            PUMP       200.00     0  02:20              1.00
  JK-Pump-1            PUMP       300.00     0  02:07              1.00
  JK-Pump-2            PUMP       300.00     0  00:00              1.00
  XR-Pump-1            PUMP        95.00     0  00:00              1.00
  XR-Pump-2            PUMP        95.00     0  03:00              1.00
  XR-Pump-3            PUMP        95.00     0  00:40              1.00
  XR-Pump-4            PUMP        95.00     0  00:00              1.00
  
  
  ***************************
  Flow Classification Summary
  ***************************
  
  -------------------------------------------------------------------------------------
                      Adjusted    ---------- Fraction of Time in Flow Class ---------- 
                       /Actual         Up    Down  Sub   Sup   Up    Down  Norm  Inlet 
  Conduit               Length    Dry  Dry   Dry   Crit  Crit  Crit  Crit  Ltd   Ctrl  
  -------------------------------------------------------------------------------------
  WS02003066WSF200        1.00   0.06  0.00  0.00  0.00  0.94  0.00  0.00  0.62  0.00
  WS02006287WS02006284    1.00   0.04  0.01  0.00  0.57  0.38  0.00  0.00  0.65  0.00
  WS02006284WS02006280    1.00   0.04  0.00  0.00  0.00  0.00  0.00  0.96  0.00  0.00
  WS02006280WS02006229    1.00   0.04  0.00  0.00  0.00  0.00  0.00  0.96  0.00  0.00
  WS02006229WS02006228    1.00   0.00  0.00  0.00  0.99  0.00  0.00  0.01  0.00  0.00
  WS02006256WS02006235    1.00   0.00  0.00  0.00  1.00  0.00  0.00  0.00  0.00  0.00
  WS02006253WS02006251    1.00   0.03  0.01  0.00  0.96  0.00  0.00  0.00  0.00  0.00
  WS02006252WS02006251    1.00   0.07  0.00  0.00  0.00  0.00  0.93  0.00  0.00  0.00
  WS02006251WS02006249    1.00   0.00  0.00  0.00  1.00  0.00  0.00  0.00  0.23  0.00
  WS02006249WS02006248    1.00   0.00  0.02  0.00  0.91  0.00  0.07  0.00  0.00  0.00
  WS02006248WS02006247    1.00   0.02  0.00  0.00  0.98  0.00  0.00  0.00  0.11  0.00
  WS02006247WS02006245    1.00   0.02  0.00  0.00  0.98  0.00  0.00  0.00  0.00  0.00
  WS02006245WS02006243    1.00   0.01  0.00  0.00  0.95  0.00  0.00  0.03  0.01  0.00
  WS02006243WS02006242    1.00   0.01  0.00  0.00  0.99  0.00  0.00  0.00  0.20  0.00
  WS02006242WS02006240    1.00   0.00  0.00  0.00  1.00  0.00  0.00  0.00  0.00  0.00
  WS02006240WS02006239    1.00   0.00  0.00  0.00  0.97  0.00  0.00  0.03  0.01  0.00
  WS02006239WS02006238    1.00   0.00  0.00  0.00  1.00  0.00  0.00  0.00  0.00  0.00
  WS02006238WS02006235    1.00   0.00  0.00  0.00  1.00  0.00  0.00  0.00  0.00  0.00
  WS02006235WS02006234    1.00   0.00  0.00  0.00  0.97  0.00  0.03  0.00  0.00  0.00
  WS02006234WS02006232    1.00   0.00  0.00  0.00  1.00  0.00  0.00  0.00  0.10  0.00
  WS02006232WS02006231    1.00   0.00  0.00  0.00  0.99  0.00  0.00  0.00  0.00  0.00
  WS02006231WS02006230    1.00   0.00  0.00  0.00  0.66  0.00  0.33  0.00  0.00  0.00
  WS02006230WS02006229    1.00   0.00  0.00  0.00  0.99  0.00  0.00  0.01  0.01  0.00
  WS02006228WS02006109    1.00   0.00  0.00  0.00  1.00  0.00  0.00  0.00  0.00  0.00
  WS02006116WS02004401    1.00   0.02  0.00  0.00  0.98  0.00  0.00  0.00  0.00  0.00
  WS02006115WS02006116    1.00   0.02  0.00  0.00  0.97  0.00  0.00  0.01  0.00  0.00
  WS02006113WS02006111    1.00   0.02  0.00  0.00  0.00  0.98  0.00  0.00  0.10  0.00
  WS02006112WS02006115    1.00   0.02  0.00  0.00  0.98  0.00  0.00  0.00  0.00  0.00
  WS02006111WS02006112    1.00   0.02  0.00  0.00  0.98  0.00  0.00  0.00  0.91  0.00
  WS02006110WS02006113    1.00   0.01  0.01  0.00  0.98  0.00  0.00  0.00  0.00  0.00
  WS02006109WS02006110    1.00   0.00  0.01  0.00  0.98  0.00  0.01  0.00  0.00  0.00
  WS02004411WS02004412    1.00   0.04  0.00  0.00  0.96  0.00  0.00  0.00  0.00  0.00
  WS02004401WS02004402    1.00   0.02  0.00  0.00  0.98  0.00  0.00  0.00  0.00  0.00
  WS02004413WS02003067    1.00   0.04  0.01  0.00  0.00  0.00  0.95  0.00  0.00  0.00
  WS02004412WS02004413    1.00   0.04  0.00  0.00  0.96  0.00  0.00  0.00  0.03  0.00
  WS02004410WS02004411    1.00   0.04  0.00  0.00  0.96  0.00  0.00  0.00  0.04  0.00
  WS02004409WS02004410    1.00   0.04  0.00  0.00  0.96  0.00  0.00  0.00  0.03  0.00
  WS02004407WS02004409    1.00   0.04  0.00  0.00  0.96  0.00  0.00  0.00  0.89  0.00
  WS02004406WS02004407    1.00   0.00  0.03  0.00  0.96  0.00  0.00  0.00  0.00  0.00
  WS02004405WS02004406    1.00   0.00  0.00  0.00  1.00  0.00  0.00  0.00  0.01  0.00
  WS02004404WS02004405    1.00   0.00  0.00  0.00  1.00  0.00  0.00  0.00  0.00  0.00
  WS02004403WS02004404    1.00   0.00  0.02  0.00  0.98  0.00  0.00  0.00  0.01  0.00
  WS02004402WS02004403    1.00   0.02  0.00  0.00  0.98  0.00  0.00  0.00  0.00  0.00
  WS02004139WS02001211    1.00   0.00  0.00  0.00  1.00  0.00  0.00  0.00  0.00  0.00
  WS02004138WS02004139    1.00   0.00  0.00  0.00  0.99  0.01  0.00  0.00  1.00  0.00
  WS02003067WS02003066    1.00   0.05  0.01  0.00  0.94  0.00  0.00  0.00  0.00  0.00
  WS02001213WS02003059    1.00   0.00  0.00  0.00  0.99  0.00  0.00  0.00  0.00  0.00
  WS02001212WS02001213    1.00   0.00  0.00  0.00  0.89  0.00  0.11  0.00  0.00  0.00
  WS02001211WS02001212    1.00   0.00  0.00  0.00  1.00  0.00  0.00  0.00  0.00  0.00
  WS02003072WS02003073    1.00   0.00  0.00  0.00  0.00  0.00  0.00  1.00  0.00  0.00
  WS02003069WS02003072    1.00   0.00  0.00  0.00  0.99  0.01  0.00  0.00  0.23  0.00
  WS02003060WS02003069    1.00   0.00  0.00  0.00  0.99  0.01  0.00  0.00  0.13  0.00
  WS02003059WS02003060    1.00   0.00  0.00  0.00  1.00  0.00  0.00  0.00  0.01  0.00
  HS02004901HS02004770    1.00   0.04  0.00  0.00  0.96  0.00  0.00  0.00  0.00  0.00
  HS02004876HS02004881    1.00   0.02  0.00  0.00  0.89  0.09  0.00  0.00  0.00  0.00
  HS02004870HS02004876    1.00   0.01  0.00  0.00  0.99  0.00  0.00  0.00  0.95  0.00
  HS02004842HS02004848    1.00   0.00  0.04  0.00  0.96  0.00  0.00  0.00  0.58  0.00
  HS02004837HS02004842    1.00   0.00  0.00  0.00  0.99  0.01  0.00  0.00  0.11  0.00
  HS02004830HS02004837    1.00   0.00  0.00  0.00  1.00  0.00  0.00  0.00  0.99  0.00
  HS02004824HS02004830    1.00   0.00  0.00  0.00  1.00  0.00  0.00  0.00  0.00  0.00
  HS02004817HS02004824    1.00   0.00  0.00  0.00  1.00  0.00  0.00  0.00  1.00  0.00
  HS02004770HS02004777    1.00   0.00  0.04  0.00  0.96  0.00  0.00  0.00  0.03  0.00
  HS02004799HS02004480    1.00   0.00  0.02  0.00  0.95  0.00  0.02  0.00  0.00  0.00
  HS02004792HS02004799    1.00   0.00  0.00  0.00  0.99  0.01  0.00  0.00  0.98  0.00
  HS02004788HS02004792    1.00   0.00  0.00  0.00  0.99  0.01  0.00  0.00  0.98  0.00
  HS02004785HS02004788    1.00   0.00  0.00  0.00  1.00  0.00  0.00  0.00  0.00  0.00
  HS02004777HS02004785    1.00   0.00  0.00  0.00  1.00  0.00  0.00  0.00  0.14  0.00
  HS02004480HS02004478    1.00   0.04  0.00  0.00  0.64  0.00  0.00  0.32  0.00  0.00
  HS02004479HS02004480    1.00   0.03  0.00  0.00  0.97  0.00  0.00  0.00  0.13  0.00
  HS02004862HS02004870    1.00   0.00  0.00  0.00  1.00  0.00  0.00  0.00  0.05  0.00
  HS02004848HS02004852    1.00   0.04  0.00  0.00  0.96  0.00  0.00  0.00  0.61  0.00
  HS02004856HS02004862    1.00   0.00  0.05  0.00  0.95  0.00  0.00  0.00  0.80  0.00
  HS02004852HS02004856    1.00   0.04  0.00  0.00  0.96  0.00  0.00  0.00  0.85  0.00
  HS02004802HS02004478    1.00   0.04  0.00  0.00  0.96  0.00  0.00  0.00  0.03  0.00
  HS02004478WS02006287    1.00   0.05  0.00  0.00  0.71  0.25  0.00  0.00  0.66  0.00
  HS02004817HS02004807    1.00   0.00  0.04  0.00  0.96  0.00  0.00  0.00  0.01  0.00
  HS02004807HS02004802    1.00   0.04  0.00  0.00  0.96  0.00  0.00  0.00  0.00  0.00
  YS02001759YS02001757    1.00   0.00  0.00  0.00  1.00  0.00  0.00  0.00  0.16  0.00
  YS02001762YS02001759    1.00   0.00  0.00  0.00  1.00  0.00  0.00  0.00  0.04  0.00
  YS02001765YS02001762    1.00   0.00  0.00  0.00  1.00  0.00  0.00  0.00  0.16  0.00
  YS02001770YS02001767    1.00   0.00  0.00  0.00  1.00  0.00  0.00  0.00  0.00  0.00
  YS02001774YS02001770    1.00   0.00  0.04  0.00  0.96  0.00  0.00  0.00  0.04  0.00
  YS02001779YS02001774    1.00   0.00  0.00  0.00  1.00  0.00  0.00  0.00  0.21  0.00
  YS02001649YS02001757    1.00   0.00  0.00  0.00  1.00  0.00  0.00  0.00  0.17  0.00
  YS02001767YS02001765    1.00   0.00  0.00  0.00  1.00  0.00  0.00  0.00  0.00  0.00
  YS02006561YS02001783    1.00   0.05  0.00  0.00  0.36  0.59  0.00  0.00  0.53  0.00
  YS02001783YS02001784    1.00   0.00  0.05  0.00  0.95  0.00  0.00  0.00  0.01  0.00
  YS02001784YS02001785    1.00   0.00  0.00  0.00  1.00  0.00  0.00  0.00  0.20  0.00
  YS02001788YS02001790    1.00   0.00  0.00  0.00  0.45  0.55  0.00  0.00  0.50  0.00
  YS02001790YS02001791    1.00   0.00  0.00  0.00  0.42  0.58  0.00  0.00  0.42  0.00
  YS02001791YS02001793    1.00   0.00  0.00  0.00  0.46  0.54  0.00  0.00  0.04  0.00
  YS02001910YS02001907    1.00   0.00  0.00  0.00  0.98  0.00  0.00  0.02  0.13  0.00
  YS02001786YS02001788    1.00   0.00  0.00  0.00  0.42  0.58  0.00  0.00  0.00  0.00
  YS02001915YS02001910    1.00   0.00  0.00  0.00  0.99  0.01  0.00  0.00  0.18  0.00
  YS02001918YS02001915    1.00   0.00  0.01  0.00  0.98  0.01  0.00  0.00  0.58  0.00
  YS02001923YS02001920    1.00   0.00  0.00  0.00  1.00  0.00  0.00  0.00  0.86  0.00
  YS02001926YS02001923    1.00   0.00  0.03  0.00  0.14  0.00  0.83  0.00  0.00  0.00
  YS02001929YS02001926    1.00   0.00  0.04  0.00  0.96  0.00  0.00  0.00  0.78  0.00
  YS02001920YS02001918    1.00   0.00  0.01  0.00  0.99  0.00  0.00  0.00  0.00  0.00
  YS02001629YS02163301    1.00   0.05  0.00  0.00  0.95  0.00  0.00  0.00  0.00  0.00
  YS02001619YS02001622    1.00   0.04  0.00  0.00  0.96  0.00  0.00  0.00  0.00  0.00
  YS02001622YS02001625    1.00   0.04  0.00  0.00  0.96  0.00  0.00  0.00  0.07  0.00
  YS02001625YS02001629    1.00   0.04  0.01  0.00  0.93  0.00  0.01  0.00  0.00  0.00
  YS02163301YS02001633    1.00   0.00  0.05  0.00  0.95  0.00  0.00  0.00  0.00  0.00
  YS02163601YS02164001    1.00   0.00  0.03  0.00  0.97  0.00  0.00  0.00  0.00  0.00
  YS02164001YS02001641    1.00   0.01  0.02  0.00  0.97  0.00  0.00  0.00  0.06  0.00
  YS02001641YS02001644    1.00   0.00  0.01  0.00  0.99  0.00  0.00  0.00  0.00  0.00
  YS02001647YS02001649    1.00   0.00  0.05  0.00  0.95  0.00  0.00  0.00  0.01  0.00
  YS02006553YS02006556    1.00   0.01  0.00  0.00  0.99  0.00  0.00  0.00  0.03  0.00
  YS02006556YS02006558    1.00   0.00  0.00  0.00  1.00  0.00  0.00  0.00  0.00  0.00
  YSB6556YSB1171          1.00   0.03  0.01  0.00  0.96  0.00  0.00  0.00  0.00  0.00
  YS02001907YS02006553    1.00   0.00  0.02  0.00  0.98  0.00  0.00  0.00  0.00  0.00
  YS02006558YS02006561    1.00   0.05  0.00  0.00  0.17  0.77  0.00  0.00  0.47  0.00
  YS02001633YS02163601    1.00   0.00  0.01  0.00  0.99  0.00  0.00  0.00  0.16  0.00
  YS02001644YS02001647    1.00   0.00  0.05  0.00  0.95  0.00  0.00  0.00  0.00  0.00
  YS02001745YS02001748    1.00   0.00  0.00  0.00  0.89  0.01  0.00  0.10  0.05  0.00
  YS02001748YS02001751    1.00   0.00  0.00  0.00  0.97  0.03  0.00  0.00  0.15  0.00
  YS02001751YS02001754    1.00   0.00  0.00  0.00  0.94  0.00  0.00  0.06  0.02  0.00
  YS02001754YS02001757    1.00   0.00  0.00  0.00  0.99  0.01  0.00  0.00  0.20  0.00
  YS02001882YS02001884    1.00   0.05  0.00  0.00  0.95  0.00  0.00  0.00  0.00  0.00
  YS02001884YS02001887    1.00   0.03  0.01  0.00  0.96  0.00  0.00  0.00  0.00  0.00
  YS02001890YS02001895    1.00   0.00  0.05  0.00  0.95  0.00  0.00  0.00  0.00  0.00
  YS02001895YS02001898    1.00   0.05  0.00  0.00  0.94  0.00  0.01  0.00  0.00  0.00
  YS02001898YS02001901    1.00   0.05  0.00  0.00  0.95  0.00  0.00  0.00  0.02  0.00
  YS02001901YS02001904    1.00   0.05  0.00  0.00  0.95  0.00  0.00  0.00  0.00  0.00
  YS02001904YS02001907    1.00   0.00  0.05  0.00  0.95  0.00  0.00  0.00  0.00  0.00
  YS02001887YS02001890    1.00   0.00  0.00  0.00  0.98  0.00  0.02  0.00  0.00  0.00
  YS02001652YS02001649    1.00   0.00  0.00  0.00  1.00  0.00  0.00  0.00  0.18  0.00
  YS02001655YS02001652    1.00   0.00  0.00  0.00  0.94  0.00  0.00  0.06  0.02  0.00
  YS02001658YS02001655    1.00   0.00  0.04  0.00  0.93  0.03  0.00  0.00  0.11  0.00
  YS02001661YS02001658    1.00   0.04  0.00  0.00  0.89  0.07  0.00  0.00  0.06  0.00
  YS02001664YS02001661    1.00   0.04  0.00  0.00  0.86  0.10  0.00  0.00  0.22  0.00
  YSB1154YSB6556          1.00   0.04  0.00  0.00  0.96  0.00  0.00  0.00  0.02  0.00
  YSB1174YSB1171          1.00   0.03  0.01  0.00  0.97  0.00  0.00  0.00  0.00  0.00
  YSB1171HS02004479       1.00   0.03  0.00  0.00  0.97  0.00  0.00  0.00  0.11  0.00
  HS02004881HS02006253    1.00   0.03  0.00  0.00  0.77  0.02  0.00  0.18  0.62  0.00
  YS02001793JiankangQianchi    1.00   0.00  0.00  0.00  0.66  0.34  0.00  0.00  0.15  0.00
  YS02001757CaochengTiaoxuchi    1.00   0.00  0.07  0.00  0.93  0.01  0.00  0.00  0.00  0.00
  WSF200WS02003060        1.00   0.00  0.06  0.00  0.47  0.47  0.00  0.00  0.12  0.00
  1                       1.00   0.00  0.00  0.00  0.00  1.00  0.00  0.00  0.36  0.00
  2                       1.00   0.60  0.00  0.00  0.00  0.40  0.00  0.00  0.08  0.00
  3                       1.00   0.06  0.00  0.00  0.00  0.94  0.00  0.00  0.23  0.00
  4                       1.00   1.00  0.00  0.00  0.00  0.00  0.00  0.00  0.00  0.00
  
  
  *************************
  Conduit Surcharge Summary
  *************************
  
  ----------------------------------------------------------------------------
                                                           Hours        Hours 
                         --------- Hours Full --------   Above Full   Capacity
  Conduit                Both Ends  Upstream  Dnstream   Normal Flow   Limited
  ----------------------------------------------------------------------------
  WS02006229WS02006228        2.54      2.80      2.54      4.71         2.54
  WS02006256WS02006235        6.12      6.13      7.04      3.57         0.01
  WS02006253WS02006251        0.07      0.07      0.23      0.01         0.01
  WS02006252WS02006251        1.19      1.19      2.13      1.89         0.01
  WS02006251WS02006249        0.01      0.18      0.01      1.34         0.01
  WS02006249WS02006248        0.01      0.01      0.01      4.45         0.01
  WS02006248WS02006247        0.01      0.01      0.22      0.01         0.01
  WS02006247WS02006245        0.20      0.28      0.20      4.95         0.20
  WS02006245WS02006243        0.25      0.25      0.33      0.03         0.01
  WS02006243WS02006242        0.41      0.41      1.56      0.01         0.01
  WS02006242WS02006240        0.82      0.82      2.02      1.76         0.01
  WS02006240WS02006239        1.00      1.00      1.21      0.01         0.01
  WS02006239WS02006238        1.92      1.92      2.11      0.01         0.01
  WS02006238WS02006235        1.94      1.94      2.44      0.01         0.01
  WS02006235WS02006234        0.84      0.84      1.72      6.17         0.01
  WS02006234WS02006232        1.09      1.09      2.67      0.01         0.01
  WS02006232WS02006231        0.81      0.81      2.67      0.01         0.01
  WS02006231WS02006230        0.58      0.58      0.82      6.15         0.01
  WS02006230WS02006229        3.53      4.33      3.53      6.25         3.53
  WS02006228WS02006109        2.69      3.15      2.69      5.57         2.69
  WS02006112WS02006115        0.01      0.01      1.16      0.01         0.01
  WS02006111WS02006112        0.01      0.01      4.81      0.01         0.01
  WS02006110WS02006113        0.01      0.01      2.96      0.01         0.01
  WS02006109WS02006110        0.92      0.92      3.15      0.92         0.01
  WS02004401WS02004402        0.01      0.01      0.01      0.01         0.01
  WS02004406WS02004407        0.01      0.01      0.41      0.01         0.01
  WS02004405WS02004406        0.41      0.54      0.41      0.99         0.41
  WS02004404WS02004405        0.54      0.74      0.54      6.00         0.54
  WS02004403WS02004404        0.02      0.02      0.74      0.01         0.01
  WS02004402WS02004403        0.01      0.01      0.02      0.01         0.01
  WS02003072WS02003073        0.01      0.01      0.01      5.37         0.01
  HS02004480HS02004478        0.01      0.01      0.01      0.25         0.01
  YS02001759YS02001757        5.66      5.66      5.74      0.01         0.01
  YS02001762YS02001759        5.64      5.64      5.66      0.01         0.01
  YS02001765YS02001762        5.61      5.61      5.64      0.01         0.01
  YS02001770YS02001767        5.58      5.58      5.58      0.34         0.89
  YS02001774YS02001770        5.57      5.57      5.63      0.01         0.01
  YS02001779YS02001774        5.38      5.38      5.63      0.01         0.01
  YS02001649YS02001757        5.64      5.64      5.74      0.01         0.01
  YS02001767YS02001765        5.58      5.58      5.61      0.01         0.01
  YS02006561YS02001783        0.64      0.64      1.17      0.01         0.01
  YS02001783YS02001784        1.17      1.17      1.24      1.16         0.97
  YS02001784YS02001785        1.17      1.24      1.17      2.10         1.17
  YS02001788YS02001790        1.16      1.16      2.02      0.01         0.01
  YS02001790YS02001791        2.02      2.02      2.20      0.48         0.47
  YS02001791YS02001793        2.20      2.20      2.65      0.01         0.01
  YS02001910YS02001907        0.97      0.97      1.49      0.01         0.01
  YS02001786YS02001788        1.16      1.17      1.16      1.68         1.16
  YS02001915YS02001910        0.76      0.76      0.97      0.01         0.01
  YS02001918YS02001915        0.51      0.51      0.76      0.01         0.01
  YS02001923YS02001920        0.27      0.27      0.55      0.01         0.01
  YS02001920YS02001918        0.51      0.51      0.55      0.01         0.01
  YS02001629YS02163301        5.57      5.57      5.58      0.01         0.01
  YS02001619YS02001622        5.21      5.21      5.24      0.01         0.01
  YS02001622YS02001625        5.24      5.24      5.49      0.01         0.01
  YS02001625YS02001629        5.23      5.23      5.49      0.01         0.01
  YS02163301YS02001633        5.58      5.58      5.61      0.01         0.01
  YS02163601YS02164001        5.61      5.61      5.64      0.01         0.01
  YS02164001YS02001641        5.61      5.61      5.62      0.01         0.03
  YS02001641YS02001644        5.62      5.62      5.62      1.21         1.30
  YS02001647YS02001649        5.43      5.43      5.64      0.01         0.01
  YS02006553YS02006556        1.20      1.20      1.55      0.01         0.01
  YS02006556YS02006558        1.38      1.38      1.62      0.01         0.01
  YS02001907YS02006553        2.09      2.09      2.30      0.01         0.01
  YS02006558YS02006561        0.86      1.15      0.86      1.94         0.86
  YS02001633YS02163601        5.60      5.60      5.64      0.01         0.01
  YS02001644YS02001647        5.43      5.43      5.62      0.01         0.01
  YS02001745YS02001748        0.01      0.01      5.05      0.01         0.01
  YS02001748YS02001751        5.10      5.10      5.22      0.01         0.01
  YS02001751YS02001754        5.22      5.22      5.39      0.01         0.01
  YS02001754YS02001757        5.42      5.42      5.74      0.01         0.01
  YS02001882YS02001884        0.77      0.77      0.80      0.01         0.01
  YS02001884YS02001887        0.86      0.86      0.89      0.01         0.01
  YS02001890YS02001895        0.74      0.74      0.98      0.01         0.01
  YS02001895YS02001898        0.73      0.73      0.74      0.01         0.01
  YS02001898YS02001901        0.75      0.75      0.86      0.01         0.01
  YS02001901YS02001904        0.83      0.83      0.86      0.01         0.01
  YS02001904YS02001907        0.83      0.83      1.57      0.01         0.01
  YS02001887YS02001890        0.92      0.92      0.94      0.01         0.01
  YS02001652YS02001649        5.45      5.45      5.64      0.01         0.01
  YS02001655YS02001652        5.23      5.23      5.41      0.01         0.01
  YS02001658YS02001655        5.09      5.09      5.23      0.01         0.01
  YS02001661YS02001658        0.19      0.19      5.09      0.01         0.01
  YS02001664YS02001661        0.01      0.01      1.08      0.01         0.01
  YS02001793JiankangQianchi        2.53      2.53      3.91      0.01         0.01
  YS02001757CaochengTiaoxuchi        4.87      4.87      5.74      0.01         0.01
  
  
  ***************
  Pumping Summary
  ***************
  
  ---------------------------------------------------------------------------------------------------------
                                                  Min       Avg       Max     Total     Power    % Time Off
                        Percent   Number of      Flow      Flow      Flow    Volume     Usage    Pump Curve
  Pump                 Utilized   Start-Ups       LPS       LPS       LPS  10^6 ltr     Kw-hr    Low   High
  ---------------------------------------------------------------------------------------------------------
  CC-Pump-1               56.66           6      0.00    129.94    200.00     2.081      3.14    0.0   13.6
  CC-Pump-2               65.95           5      0.00    151.06    200.00     2.760      3.84    0.0    6.6
  JK-Pump-1               87.23           4      0.00    196.44    300.00     3.934     38.97    0.0    0.0
  JK-Pump-2               68.08           8      0.00    166.82    300.00     2.626     29.07    0.0    0.0
  XR-Pump-1               78.72           7      0.00     69.10     95.00     1.539      9.72    0.0    0.0
  XR-Pump-2               85.09           7      0.00     66.09     95.00     1.482      9.00    0.0    0.0
  XR-Pump-3               68.07           7      0.00     58.94     95.00     1.197      8.88    0.0    0.0
  XR-Pump-4               78.72           9      0.00     64.68     95.00     1.482     10.96    0.0    0.0
  

  Analysis begun on:  Thu Jan  6 22:58:32 2022
  Analysis ended on:  Thu Jan  6 22:58:35 2022
  Total elapsed time: 00:00:03