
  EPA STORM WATER MANAGEMENT MODEL - VERSION 5.1 (Build 5.3.0.dev0)
  --------------------------------------------------------------

  WARNING 04: minimum elevation drop used for Conduit WS02004404WS02004405
  WARNING 03: negative offset ignored for Link YS02001904YS02001907
  
  *********************************************************
  NOTE: The summary statistics displayed in this report are
  based on results found at every computational time step,  
  not just on results from each reporting time step.
  *********************************************************
  
  ****************
  Analysis Options
  ****************
  Flow Units ............... LPS
  Process Models:
    Rainfall/Runoff ........ YES
    RDII ................... NO
    Snowmelt ............... NO
    Groundwater ............ NO
    Flow Routing ........... YES
    Ponding Allowed ........ NO
    Water Quality .......... NO
  Infiltration Method ...... HORTON
  Flow Routing Method ...... DYNWAVE
  Surcharge Method ......... EXTRAN
  Starting Date ............ 08/28/2015 08:00:00
  Ending Date .............. 08/28/2015 15:50:00
  Antecedent Dry Days ...... 8.0
  Report Time Step ......... 00:01:00
  Wet Time Step ............ 00:01:00
  Dry Time Step ............ 00:01:00
  Routing Time Step ........ 5.00 sec
  Variable Time Step ....... YES
  Maximum Trials ........... 8
  Number of Threads ........ 4
  Head Tolerance ........... 0.001500 m
  
  
  **************************        Volume         Depth
  Runoff Quantity Continuity     hectare-m            mm
  **************************     ---------       -------
  Total Precipitation ......         6.144        13.452
  Evaporation Loss .........         0.000         0.000
  Infiltration Loss ........         1.572         3.442
  Surface Runoff ...........         3.480         7.619
  Final Storage ............         1.093         2.393
  Continuity Error (%) .....        -0.016
  
  
  **************************        Volume        Volume
  Flow Routing Continuity        hectare-m      10^6 ltr
  **************************     ---------     ---------
  Dry Weather Inflow .......         0.616         6.165
  Wet Weather Inflow .......         3.479        34.789
  Groundwater Inflow .......         0.000         0.000
  RDII Inflow ..............         0.000         0.000
  External Inflow ..........         0.102         1.024
  External Outflow .........         1.875        18.751
  Flooding Loss ............         1.774        17.737
  Evaporation Loss .........         0.000         0.000
  Exfiltration Loss ........         0.000         0.000
  Initial Stored Volume ....         0.076         0.761
  Final Stored Volume ......         0.648         6.483
  Continuity Error (%) .....        -0.545
  
  
  *************************
  Highest Continuity Errors
  *************************
  Node HS02004842 (15.27%)
  Node YS02001884 (11.93%)
  Node YSB1171 (2.79%)
  Node HS02004817 (2.78%)
  Node JK-storage (-2.22%)
  
  
  ***************************
  Time-Step Critical Elements
  ***************************
  Link WS02006252WS02006251 (43.95%)
  Link 3 (42.56%)
  Link WS02004404WS02004405 (3.10%)
  Link WS02006238WS02006235 (2.95%)
  Link WS02006280WS02006229 (1.54%)
  
  
  ********************************
  Highest Flow Instability Indexes
  ********************************
  Link YS02163601YS02164001 (42)
  Link YS02163301YS02001633 (41)
  Link YS02001629YS02163301 (40)
  Link YS02001619YS02001622 (40)
  Link YS02164001YS02001641 (39)
  
  
  *************************
  Routing Time Step Summary
  *************************
  Minimum Time Step           :     0.48 sec
  Average Time Step           :     0.86 sec
  Maximum Time Step           :     5.00 sec
  Percent in Steady State     :    -0.00
  Average Iterations per Step :     4.45
  Percent Not Converging      :    19.92
  
  
  ***************************
  Subcatchment Runoff Summary
  ***************************
  
  ------------------------------------------------------------------------------------------------------------------------------
                            Total      Total      Total      Total     Imperv       Perv      Total       Total     Peak  Runoff
                           Precip      Runon       Evap      Infil     Runoff     Runoff     Runoff      Runoff   Runoff   Coeff
  Subcatchment                 mm         mm         mm         mm         mm         mm         mm    10^6 ltr      LPS
  ------------------------------------------------------------------------------------------------------------------------------
  sub0                      13.45       0.00       0.00       0.89      11.25       0.05      11.30        0.01     3.67   0.840
  sub1                      13.45       0.00       0.00       1.45      10.71       0.03      10.74        0.07    24.31   0.799
  sub2                      13.45       0.00       0.00       4.95       7.56       0.02       7.58        0.07    22.93   0.564
  sub3                      13.45       0.00       0.00       4.96       7.52       0.02       7.54        0.17    51.30   0.560
  sub4                      13.45       0.00       0.00       1.46      10.54       0.02      10.56        0.22    61.94   0.785
  sub5                      13.45       0.00       0.00       0.91      11.19       0.03      11.22        0.13    43.21   0.834
  sub7                      13.45       0.00       0.00       1.17      10.98       0.04      11.03        0.04    13.69   0.820
  sub8                      13.45       0.00       0.00       1.17      10.97       0.04      11.01        0.07    25.15   0.819
  sub9                      13.45       0.00       0.00       1.17      10.97       0.04      11.01        0.05    18.81   0.818
  sub10                     13.45       0.00       0.00       1.04      11.08       0.03      11.11        0.12    42.29   0.826
  sub11                     13.45       0.00       0.00       1.04      11.10       0.04      11.14        0.13    46.68   0.828
  sub12                     13.45       0.00       0.00       1.69      10.51       0.06      10.58        0.09    35.94   0.786
  sub14                     13.45       0.00       0.00       1.17      10.97       0.04      11.01        0.10    37.02   0.818
  sub15                     13.45       0.00       0.00       4.00       8.43       0.04       8.47        0.15    51.03   0.630
  sub16                     13.45       0.00       0.00       4.38       8.09       0.06       8.15        0.09    32.58   0.606
  sub17                     13.45       0.00       0.00       4.25       8.21       0.06       8.27        0.07    26.73   0.615
  sub22                     13.45       0.00       0.00       5.74       6.88       0.04       6.92        0.44   159.06   0.514
  sub23                     13.45       0.00       0.00       4.93       7.60       0.05       7.65        0.36   133.95   0.569
  sub60                     13.45       0.00       0.00       1.61       8.73       0.00       8.74        2.65   387.96   0.649
  sub61                     13.45       0.00       0.00       2.28       8.88       0.00       8.88        2.74   483.52   0.660
  sub62                     13.45       0.00       0.00       1.07       9.65       0.00       9.66        2.97   496.42   0.718
  sub63                     13.45       0.00       0.00       3.90       7.77       0.00       7.77        2.35   446.68   0.578
  sub64                     13.45       0.00       0.00       2.01       8.38       0.00       8.38        2.55   368.35   0.623
  sub65                     13.45       0.00       0.00       1.75       8.52       0.00       8.52        2.62   373.60   0.634
  sub66                     13.45       0.00       0.00       3.90       7.19       0.00       7.19        2.21   337.96   0.535
  sub67                     13.45       0.00       0.00       1.07      10.19       0.01      10.19        3.15   622.58   0.758
  sub68                     13.45       0.00       0.00       1.88       9.34       0.01       9.34        2.87   531.38   0.694
  sub69                     13.45       0.00       0.00       2.01       9.68       0.01       9.69        2.26   503.32   0.720
  sub70                     13.45       9.89       0.00       7.67      12.93       0.26      13.20        3.02   423.72   0.565
  sub71                     13.45       0.00       0.00       1.07       9.40       0.00       9.40        2.22   347.35   0.699
  sub72                     13.45       0.00       0.00       0.94       7.49       0.00       7.50        1.53   163.23   0.557
  sub73                     13.45      12.84       0.00       8.67      14.26       0.27      14.53        3.41   375.92   0.552
  sub74                     13.45       0.00       0.00      10.09       2.88       0.00       2.89        1.15   273.25   0.215
  
  
  ******************
  Node Depth Summary
  ******************
  
  ---------------------------------------------------------------------------------
                                 Average  Maximum  Maximum  Time of Max    Reported
                                   Depth    Depth      HGL   Occurrence   Max Depth
  Node                 Type       Meters   Meters   Meters  days hr:min      Meters
  ---------------------------------------------------------------------------------
  WS02001211           JUNCTION     0.64     0.76     5.60     0  03:51        0.76
  WS02001212           JUNCTION     0.38     0.47     5.54     0  03:51        0.47
  WS02001213           JUNCTION     0.61     0.73     5.49     0  03:06        0.73
  WS02003069           JUNCTION     0.45     0.61     5.19     0  03:07        0.61
  WS02003072           JUNCTION     0.51     0.66     5.03     0  03:07        0.66
  WS02003073           JUNCTION     0.31     0.41     4.47     0  03:08        0.41
  WS02003060           JUNCTION     0.40     0.54     5.47     0  03:06        0.53
  WS02003066           JUNCTION     0.24     0.35     5.90     0  03:07        0.35
  WS02003059           JUNCTION     0.68     0.80     5.49     0  03:05        0.80
  WS02003067           JUNCTION     0.59     0.77     6.09     0  03:06        0.77
  WS02004401           JUNCTION     0.71     1.06     7.06     0  03:04        1.06
  WS02004402           JUNCTION     0.74     1.06     7.02     0  03:04        1.06
  WS02004403           JUNCTION     0.76     1.06     6.99     0  03:04        1.06
  WS02004404           JUNCTION     0.83     1.12     6.97     0  03:04        1.12
  WS02004406           JUNCTION     0.83     1.08     6.91     0  03:05        1.08
  WS02004409           JUNCTION     0.52     0.81     6.58     0  03:06        0.81
  WS02004410           JUNCTION     0.54     0.81     6.53     0  03:06        0.81
  WS02004411           JUNCTION     0.56     0.81     6.49     0  03:06        0.81
  WS02004412           JUNCTION     0.57     0.80     6.44     0  03:06        0.80
  WS02004413           JUNCTION     0.72     0.95     6.42     0  03:06        0.95
  WS02004405           JUNCTION     0.82     1.10     6.95     0  03:04        1.10
  WS02006109           JUNCTION     0.80     1.18     7.80     0  03:03        1.18
  WS02006110           JUNCTION     0.78     1.05     7.64     0  03:04        1.05
  WS02006111           JUNCTION     0.23     0.50     7.21     0  03:04        0.50
  WS02006112           JUNCTION     0.88     1.31     7.19     0  03:04        1.30
  WS02006113           JUNCTION     0.36     0.54     7.44     0  03:04        0.54
  WS02006115           JUNCTION     0.60     0.99     7.13     0  03:04        0.99
  WS02006116           JUNCTION     0.68     1.06     7.10     0  03:04        1.06
  WS02006230           JUNCTION     0.78     1.27     8.02     0  03:02        1.27
  WS02006231           JUNCTION     0.52     0.91     8.04     0  03:04        0.91
  WS02006232           JUNCTION     0.66     1.01     8.05     0  03:03        0.99
  WS02006234           JUNCTION     0.57     0.90     8.06     0  03:04        0.89
  WS02006235           JUNCTION     0.60     0.91     8.07     0  03:04        0.90
  WS02006238           JUNCTION     0.63     0.93     8.07     0  03:03        0.91
  WS02006240           JUNCTION     0.52     0.80     8.09     0  03:04        0.79
  WS02006242           JUNCTION     0.58     0.84     8.10     0  03:04        0.83
  WS02006243           JUNCTION     0.45     0.72     8.14     0  02:21        0.72
  WS02006245           JUNCTION     0.43     0.69     8.17     0  02:21        0.69
  WS02006247           JUNCTION     0.45     0.69     8.19     0  02:21        0.69
  WS02006248           JUNCTION     0.39     0.63     8.21     0  02:20        0.63
  WS02006249           JUNCTION     0.42     0.63     8.23     0  02:20        0.63
  WS02006239           JUNCTION     0.58     0.87     8.08     0  03:04        0.86
  WS02006251           JUNCTION     0.41     0.67     8.34     0  02:20        0.66
  WS02006252           JUNCTION     0.34     0.59     8.84     0  06:46        0.59
  WS02006253           JUNCTION     0.43     0.70     8.34     0  02:20        0.69
  WS02006256           JUNCTION     1.06     1.21     8.15     0  03:20        1.21
  WS02004138           JUNCTION     0.14     0.19     7.44     0  03:50        0.19
  WS02004407           JUNCTION     0.24     0.35     6.66     0  03:05        0.35
  WS02006228           JUNCTION     0.80     1.28     7.93     0  03:03        1.28
  WS02006229           JUNCTION     0.78     1.31     8.00     0  03:03        1.31
  WS02006280           JUNCTION     0.08     0.24     8.52     0  03:02        0.24
  WS02006284           JUNCTION     0.38     0.63     9.02     0  03:02        0.62
  WS02006287           JUNCTION     0.11     0.37     9.32     0  03:02        0.37
  WSF200               JUNCTION     0.24     0.38     5.61     0  03:06        0.38
  HS02004901           JUNCTION     0.14     0.35    10.17     0  03:01        0.35
  HS02004881           JUNCTION     0.01     0.05     9.08     0  03:01        0.05
  HS02004876           JUNCTION     0.05     0.15     9.18     0  03:01        0.15
  HS02004870           JUNCTION     0.02     0.09     9.37     0  03:01        0.09
  HS02004862           JUNCTION     0.02     0.10     9.49     0  03:01        0.10
  HS02004856           JUNCTION     0.08     0.15     9.57     0  03:01        0.15
  HS02004852           JUNCTION     0.01     0.07     9.58     0  03:02        0.07
  HS02004848           JUNCTION     0.01     0.06     9.67     0  03:01        0.06
  HS02004842           JUNCTION     0.34     0.40     9.67     0  03:01        0.40
  HS02004837           JUNCTION     0.03     0.09     9.67     0  03:01        0.09
  HS02004830           JUNCTION     0.04     0.10     9.57     0  03:01        0.10
  HS02004824           JUNCTION     0.03     0.11     9.51     0  03:02        0.11
  HS02004817           JUNCTION     0.45     0.67     9.52     0  03:02        0.67
  HS02004807           JUNCTION     0.14     0.34     9.51     0  03:02        0.34
  HS02004802           JUNCTION     0.17     0.38     9.50     0  03:02        0.38
  HS02004799           JUNCTION     0.14     0.43     9.65     0  03:01        0.43
  HS02004792           JUNCTION     0.04     0.20     9.72     0  03:01        0.19
  HS02004788           JUNCTION     0.03     0.14    10.04     0  03:02        0.14
  HS02004785           JUNCTION     0.06     0.23    10.13     0  03:02        0.23
  HS02004777           JUNCTION     0.16     0.37    10.17     0  03:01        0.37
  HS02004770           JUNCTION     0.13     0.34    10.17     0  03:01        0.34
  HS02004480           JUNCTION     0.10     0.35     9.59     0  03:01        0.35
  HS02004479           JUNCTION     0.13     0.39     9.60     0  03:01        0.39
  HS02004478           JUNCTION     0.07     0.26     9.48     0  03:01        0.26
  YS02001745           JUNCTION     0.69     0.89     8.40     0  03:17        0.88
  YS02001748           JUNCTION     1.07     2.27     9.35     0  02:45        1.32
  YS02001751           JUNCTION     1.25     2.20     9.08     0  02:45        1.53
  YS02001754           JUNCTION     1.51     2.19     8.80     0  02:47        1.81
  YS02001762           JUNCTION     1.71     2.06     8.46     0  02:46        2.03
  YS02001765           JUNCTION     1.66     2.01     8.46     0  02:46        1.97
  YS02001767           JUNCTION     1.62     1.96     8.45     0  02:46        1.92
  YS02001770           JUNCTION     1.62     1.95     8.44     0  02:46        1.90
  YS02001774           JUNCTION     1.69     2.02     8.44     0  02:47        1.97
  YS02001779           JUNCTION     1.43     1.68     8.37     0  02:45        1.68
  YS02001882           JUNCTION     0.61     1.63     8.35     0  02:50        1.62
  YS02001884           JUNCTION     0.71     1.73     8.35     0  03:01        1.73
  YS02001759           JUNCTION     1.74     2.12     8.48     0  02:47        2.07
  YS02001887           JUNCTION     0.78     1.81     8.35     0  03:00        1.80
  YS02001890           JUNCTION     0.81     1.81     8.32     0  02:50        1.81
  YS02001898           JUNCTION     0.58     1.57     8.31     0  02:50        1.56
  YS02001901           JUNCTION     0.70     1.68     8.29     0  02:51        1.68
  YS02001904           JUNCTION     0.67     1.64     8.27     0  02:51        1.63
  YS02001907           JUNCTION     1.00     1.96     8.25     0  02:50        1.96
  YS02001910           JUNCTION     0.79     1.79     8.30     0  02:52        1.78
  YS02001915           JUNCTION     0.59     1.61     8.33     0  02:52        1.58
  YS02001918           JUNCTION     0.33     1.29     8.36     0  02:52        1.28
  YS02001619           JUNCTION     1.22     1.61     8.54     0  02:42        1.48
  YS02001629           JUNCTION     1.57     1.85     8.40     0  02:42        1.85
  YS02001641           JUNCTION     1.67     1.97     8.40     0  02:47        1.93
  YS02001644           JUNCTION     1.67     1.92     8.35     0  02:45        1.92
  YS02001652           JUNCTION     1.52     2.11     8.71     0  02:58        1.92
  YS02001655           JUNCTION     1.28     2.20     9.05     0  02:40        1.78
  YS02001920           JUNCTION     0.43     1.38     8.39     0  02:52        1.36
  YS02001923           JUNCTION     0.26     1.14     8.40     0  02:52        1.13
  YS02001926           JUNCTION     0.30     0.98     8.43     0  02:52        0.97
  YS02001929           JUNCTION     0.18     0.76     8.45     0  02:52        0.69
  YS02001658           JUNCTION     1.02     2.24     9.38     0  02:58        1.68
  YS02001661           JUNCTION     0.80     2.34     9.75     0  02:58        1.74
  YS02001664           JUNCTION     0.36     0.57     8.49     0  03:45        0.56
  YS02001622           JUNCTION     1.24     1.58     8.49     0  02:46        1.50
  YS02001633           JUNCTION     1.66     2.03     8.49     0  02:45        1.94
  YS02001649           JUNCTION     1.71     2.05     8.44     0  02:45        2.05
  YS02001757           JUNCTION     1.84     2.21     8.47     0  02:46        2.17
  YS02001895           JUNCTION     0.57     1.57     8.31     0  02:56        1.56
  YS02001625           JUNCTION     1.53     1.78     8.38     0  02:42        1.78
  YS02163301           JUNCTION     1.60     1.95     8.47     0  02:45        1.87
  YS02163601           JUNCTION     1.71     2.05     8.45     0  02:45        1.98
  YS02164001           JUNCTION     1.65     1.97     8.42     0  02:47        1.91
  YS02001647           JUNCTION     1.50     1.81     8.42     0  02:46        1.79
  YSB1154              JUNCTION     0.27     0.54     9.60     0  03:01        0.54
  YSB6556              JUNCTION     0.17     0.43     9.60     0  03:02        0.43
  YSB1174              JUNCTION     0.22     0.49     9.60     0  03:01        0.49
  YSB1171              JUNCTION     0.42     0.69     9.60     0  03:01        0.69
  YS02006553           JUNCTION     1.00     1.97     8.25     0  02:59        1.96
  YS02006561           JUNCTION     0.36     1.09     7.75     0  02:51        1.08
  YS02006556           JUNCTION     0.97     1.93     8.24     0  02:59        1.93
  YS02006558           JUNCTION     1.01     1.98     8.24     0  03:00        1.97
  YS02001783           JUNCTION     0.62     1.48     7.63     0  02:51        1.47
  YS02001784           JUNCTION     0.64     1.78     7.85     0  02:38        1.42
  YS02001786           JUNCTION     0.59     1.88     7.91     0  02:38        1.26
  YS02001788           JUNCTION     0.53     2.20     8.18     0  02:38        1.13
  YS02001790           JUNCTION     0.68     1.96     7.60     0  02:37        1.29
  YS02001791           JUNCTION     0.68     1.70     7.17     0  02:37        1.27
  YS02001793           JUNCTION     0.95     3.60     8.43     0  02:35        1.81
  WS02004139           JUNCTION     0.58     0.70     5.61     0  03:50        0.70
  WSC                  OUTFALL      0.31     0.41     1.08     0  03:08        0.41
  3                    OUTFALL      0.10     0.21     6.21     0  03:20        0.21
  4                    OUTFALL      0.03     0.13     7.13     0  02:20        0.13
  5                    OUTFALL      0.00     0.00     5.00     0  00:00        0.00
  JK-storage           STORAGE      3.56     5.80     6.60     0  02:38        5.80
  CC-storage           STORAGE      1.06     1.38     8.38     0  03:52        1.38
  XR-storage           STORAGE      7.60     7.72     5.72     0  02:11        7.72
  
  
  *******************
  Node Inflow Summary
  *******************
  
  -------------------------------------------------------------------------------------------------
                                  Maximum  Maximum                  Lateral       Total        Flow
                                  Lateral    Total  Time of Max      Inflow      Inflow     Balance
                                   Inflow   Inflow   Occurrence      Volume      Volume       Error
  Node                 Type           LPS      LPS  days hr:min    10^6 ltr    10^6 ltr     Percent
  -------------------------------------------------------------------------------------------------
  WS02001211           JUNCTION      7.35   374.77     0  03:50       0.207         6.1       0.632
  WS02001212           JUNCTION      0.00   366.14     0  03:51           0        6.07       0.348
  WS02001213           JUNCTION      0.00   363.28     0  03:51           0        6.04       0.364
  WS02003069           JUNCTION      0.32  1005.51     0  03:07     0.00902        14.5       0.193
  WS02003072           JUNCTION      0.00  1005.18     0  03:07           0        14.5       0.240
  WS02003073           JUNCTION      1.82  1007.07     0  03:08      0.0514        14.5       0.273
  WS02003060           JUNCTION     16.53  1005.78     0  03:06       0.466        14.6       0.182
  WS02003066           JUNCTION      0.00   745.32     0  03:07           0        8.12       0.046
  WS02003059           JUNCTION      0.00   362.23     0  03:52           0        6.03       0.665
  WS02003067           JUNCTION      0.00   745.05     0  03:07           0        8.13       0.099
  WS02004401           JUNCTION      0.00   748.38     0  03:05           0        8.32       0.201
  WS02004402           JUNCTION      0.00   748.41     0  03:05           0         8.3       0.195
  WS02004403           JUNCTION      0.00   748.43     0  03:05           0        8.29       0.182
  WS02004404           JUNCTION      0.16   748.62     0  03:05     0.00457        8.28       0.142
  WS02004406           JUNCTION      0.00   748.68     0  03:05           0        8.25       0.348
  WS02004409           JUNCTION      0.00   748.54     0  03:05           0        8.22       0.147
  WS02004410           JUNCTION      0.00   746.75     0  03:05           0         8.2       0.175
  WS02004411           JUNCTION      0.00   745.74     0  03:06           0        8.19       0.186
  WS02004412           JUNCTION      0.00   745.20     0  03:06           0        8.17       0.209
  WS02004413           JUNCTION      0.00   745.05     0  03:06           0        8.16       0.319
  WS02004405           JUNCTION      0.04   748.67     0  03:05     0.00107        8.27       0.213
  WS02006109           JUNCTION      1.23   735.64     0  03:03      0.0347        8.33       0.140
  WS02006110           JUNCTION      0.00   735.65     0  03:03           0        8.32       0.168
  WS02006111           JUNCTION      0.00   738.67     0  03:01           0         8.3       0.026
  WS02006112           JUNCTION     26.73   747.49     0  03:04      0.0709        8.37       0.284
  WS02006113           JUNCTION      0.00   735.60     0  03:03           0        8.31       0.057
  WS02006115           JUNCTION      0.00   747.45     0  03:04           0        8.35       0.164
  WS02006116           JUNCTION      0.00   748.02     0  03:04           0        8.33       0.164
  WS02006230           JUNCTION     10.28   403.07     0  05:40        0.29        6.23       0.122
  WS02006231           JUNCTION      0.00   393.11     0  05:32           0        5.94       0.052
  WS02006232           JUNCTION      0.00   393.17     0  05:32           0        5.95       0.141
  WS02006234           JUNCTION      0.00   394.83     0  05:31           0        5.95       0.006
  WS02006235           JUNCTION      0.00   394.66     0  05:31           0        5.99       0.093
  WS02006238           JUNCTION      0.00   337.06     0  06:46           0        4.11       0.051
  WS02006240           JUNCTION      0.00   337.19     0  06:43           0        4.08       0.037
  WS02006242           JUNCTION      0.00   337.51     0  06:42           0        4.07       0.056
  WS02006243           JUNCTION      0.00   338.61     0  06:41           0        4.05      -0.272
  WS02006245           JUNCTION      0.00   338.67     0  06:41           0        4.05       0.135
  WS02006247           JUNCTION      0.00   338.81     0  06:42           0        4.05       0.017
  WS02006248           JUNCTION      0.00   339.12     0  06:41           0        4.05      -0.057
  WS02006249           JUNCTION      0.00   444.24     0  02:20           0        4.49       0.087
  WS02006239           JUNCTION      0.00   337.08     0  06:47           0         4.1       0.048
  WS02006251           JUNCTION      0.08   444.40     0  02:20     0.00217        4.52      -0.002
  WS02006252           JUNCTION      0.00   400.00     0  05:30           0        4.08       0.002
  WS02006253           JUNCTION      3.67   134.78     0  03:01     0.00915       0.433      -0.113
  WS02006256           JUNCTION      0.00   600.00     0  05:30           0        5.72       0.033
  WS02004138           JUNCTION      0.00   379.77     0  03:50           0        5.93       0.064
  WS02004407           JUNCTION      0.00   748.77     0  03:05           0        8.22       0.062
  WS02006228           JUNCTION      0.00   734.46     0  03:03           0        8.31       0.104
  WS02006229           JUNCTION      0.00   736.07     0  03:03           0        8.31       0.094
  WS02006280           JUNCTION      0.00   611.98     0  03:02           0         2.1       0.003
  WS02006284           JUNCTION      0.10   611.08     0  03:02      0.0027         2.1       0.059
  WS02006287           JUNCTION      0.00   609.85     0  03:02           0         2.1       0.034
  WSF200               JUNCTION      0.00   745.43     0  03:07           0        8.12       0.041
  HS02004901           JUNCTION     32.58    32.58     0  03:01      0.0854      0.0856       2.107
  HS02004881           JUNCTION     13.69   131.69     0  03:01      0.0372       0.403       0.111
  HS02004876           JUNCTION     24.31   119.37     0  03:01      0.0714       0.367       0.153
  HS02004870           JUNCTION     25.15    96.63     0  03:01      0.0704       0.295       0.038
  HS02004862           JUNCTION     23.13    73.48     0  03:01      0.0763       0.225       0.079
  HS02004856           JUNCTION     18.81    51.88     0  03:01      0.0529        0.15       0.973
  HS02004852           JUNCTION      0.00    35.11     0  03:01           0      0.0975       0.061
  HS02004848           JUNCTION     51.30    51.30     0  03:01        0.17        0.17       0.030
  HS02004842           JUNCTION      0.00    15.11     0  03:01           0      0.0852      18.027
  HS02004837           JUNCTION     48.64    62.30     0  03:01       0.302       0.374       0.217
  HS02004830           JUNCTION      0.15    61.39     0  03:01     0.00423       0.364       0.340
  HS02004824           JUNCTION     61.99   121.77     0  03:01       0.222       0.584       0.093
  HS02004817           JUNCTION      0.60   118.00     0  03:02      0.0169       0.601       2.855
  HS02004807           JUNCTION     46.68   158.05     0  03:01       0.129       0.713       0.602
  HS02004802           JUNCTION      0.00   156.93     0  03:03           0       0.709       0.571
  HS02004799           JUNCTION     37.02   389.12     0  03:01       0.105        1.19       0.208
  HS02004792           JUNCTION    159.34   356.47     0  03:01       0.445        1.08       0.038
  HS02004788           JUNCTION     52.70   202.58     0  03:02       0.193       0.638       0.062
  HS02004785           JUNCTION      0.15   157.28     0  03:01     0.00423       0.447       0.112
  HS02004777           JUNCTION      0.03   160.02     0  03:01    0.000846       0.447       1.175
  HS02004770           JUNCTION    133.95   163.77     0  03:01       0.365       0.449       0.699
  HS02004480           JUNCTION      0.00   456.71     0  03:01           0         1.4       0.084
  HS02004479           JUNCTION      0.00    72.19     0  03:02           0       0.228       0.322
  HS02004478           JUNCTION      0.00   609.32     0  03:02           0         2.1       0.018
  YS02001745           JUNCTION    387.96   438.75     0  02:45        2.65        2.66       0.431
  YS02001748           JUNCTION      0.04   631.68     0  02:45     0.00127        2.65       0.874
  YS02001751           JUNCTION      0.01   398.36     0  03:01     0.00031        2.61       0.909
  YS02001754           JUNCTION      0.26   398.84     0  03:01     0.00733         2.6       0.970
  YS02001762           JUNCTION      0.00   375.69     0  02:54           0        1.75       1.223
  YS02001765           JUNCTION      0.00   375.58     0  02:54           0        1.75       1.412
  YS02001767           JUNCTION      0.54   375.63     0  02:54      0.0151        1.77       2.066
  YS02001770           JUNCTION    496.57   496.57     0  03:01        2.97        3.15       1.023
  YS02001774           JUNCTION      0.00   377.08     0  03:19           0        1.54       1.660
  YS02001779           JUNCTION      0.01   377.41     0  03:19    0.000141        1.51       1.032
  YS02001882           JUNCTION      0.00    42.01     0  02:46           0      0.0175      15.416
  YS02001884           JUNCTION      0.00    67.78     0  02:40           0      0.0536      13.542
  YS02001759           JUNCTION    483.56   753.08     0  02:54        2.74        4.28       0.541
  YS02001887           JUNCTION    623.03   623.05     0  03:01        3.16        3.19       0.276
  YS02001890           JUNCTION      0.00   623.19     0  03:01           0        3.14       0.303
  YS02001898           JUNCTION      0.00   517.12     0  03:07           0        3.09       0.114
  YS02001901           JUNCTION      0.00   517.09     0  03:07           0        3.08       0.229
  YS02001904           JUNCTION      0.00   516.98     0  03:07           0        3.08       0.210
  YS02001907           JUNCTION      0.00  1058.10     0  03:01           0        6.88       0.356
  YS02001910           JUNCTION      0.00   541.92     0  03:01           0        3.81       0.316
  YS02001915           JUNCTION    347.37   541.76     0  03:01        2.22        3.85       0.167
  YS02001918           JUNCTION      0.00   273.73     0  02:53           0        1.66       0.119
  YS02001619           JUNCTION    337.96   337.96     0  03:01        2.21        2.21       0.557
  YS02001629           JUNCTION      0.00   218.97     0  02:49           0        1.56       1.870
  YS02001641           JUNCTION      0.00   460.53     0  02:49           0        4.08       0.522
  YS02001644           JUNCTION    368.39  1123.65     0  03:17        2.55        9.19       0.292
  YS02001652           JUNCTION      0.00   484.56     0  03:01           0         2.3       1.014
  YS02001655           JUNCTION      0.15   484.28     0  03:01     0.00434        2.33       1.095
  YS02001920           JUNCTION      2.87   273.43     0  02:53      0.0809        1.64       0.189
  YS02001923           JUNCTION      0.04   266.80     0  02:53     0.00106        1.54       0.052
  YS02001926           JUNCTION      0.05   197.20     0  02:53     0.00147        1.53       0.222
  YS02001929           JUNCTION    163.23   163.23     0  03:01        1.53        1.53       0.039
  YS02001658           JUNCTION      0.00   532.67     0  02:43           0        2.35       1.019
  YS02001661           JUNCTION      0.00   721.45     0  02:54           0        2.88       0.017
  YS02001664           JUNCTION    446.68   446.68     0  03:01        2.35        2.89       0.248
  YS02001622           JUNCTION      0.00   338.23     0  03:01           0        2.19       1.468
  YS02001633           JUNCTION    373.80   460.17     0  02:49        2.63        4.14       0.781
  YS02001649           JUNCTION      0.00   987.28     0  02:50           0        5.34       0.704
  YS02001757           JUNCTION      0.00  1915.58     0  02:51           0         9.4       0.993
  YS02001895           JUNCTION      0.00   517.08     0  03:07           0        3.09       0.165
  YS02001625           JUNCTION      0.00   338.19     0  03:01           0        2.16       1.814
  YS02163301           JUNCTION      0.00   219.08     0  02:49           0        1.54       1.582
  YS02163601           JUNCTION      0.11   460.30     0  02:49      0.0031        4.11       0.738
  YS02164001           JUNCTION      0.00   460.28     0  02:49           0        4.09       0.493
  YS02001647           JUNCTION      0.00   701.35     0  02:50           0        4.39       0.651
  YSB1154              JUNCTION     43.21    43.21     0  03:01       0.127       0.128       1.144
  YSB6556              JUNCTION      0.00    41.77     0  03:01           0       0.129       0.980
  YSB1174              JUNCTION     35.94    35.94     0  03:01      0.0924      0.0931       1.403
  YSB1171              JUNCTION      0.00    73.33     0  03:01           0       0.227       2.865
  YS02006553           JUNCTION      0.00   671.96     0  03:32           0        6.12       0.257
  YS02006561           JUNCTION      0.00   969.20     0  03:01           0        8.97       0.009
  YS02006556           JUNCTION      0.00   671.87     0  03:32           0        6.13       0.185
  YS02006558           JUNCTION    532.26   969.49     0  03:00         2.9           9       0.060
  YS02001783           JUNCTION      0.00   969.15     0  03:01           0        8.97       0.028
  YS02001784           JUNCTION      1.06   970.26     0  03:01      0.0299           9       0.044
  YS02001786           JUNCTION      0.06   970.13     0  03:00     0.00159        8.99       0.039
  YS02001788           JUNCTION      0.07   970.29     0  03:01       0.002        8.99       0.024
  YS02001790           JUNCTION      0.15   970.52     0  03:00     0.00437        8.99       0.029
  YS02001791           JUNCTION      0.00   970.45     0  03:00           0        8.99       0.015
  YS02001793           JUNCTION      0.00   970.54     0  03:01           0        8.99       0.001
  WS02004139           JUNCTION      0.32   378.90     0  03:50     0.00905        5.93       0.616
  WSC                  OUTFALL       0.00  1007.27     0  03:08           0        14.5       0.000
  3                    OUTFALL       0.00   519.68     0  03:20           0        3.81       0.000
  4                    OUTFALL       0.00   170.68     0  02:20           0        0.44       0.000
  5                    OUTFALL       0.00     0.00     0  00:00           0           0       0.000 ltr
  JK-storage           STORAGE       0.00   996.82     0  02:34           0        9.14      -2.174
  CC-storage           STORAGE       0.00  1914.94     0  02:51           0        8.01       0.821
  XR-storage           STORAGE     849.17   849.17     0  03:01        10.2        10.8       0.000
  
  
  **********************
  Node Surcharge Summary
  **********************
  
  Surcharging occurs when water rises above the top of the highest conduit.
  ---------------------------------------------------------------------
                                               Max. Height   Min. Depth
                                   Hours       Above Crown    Below Rim
  Node                 Type      Surcharged         Meters       Meters
  ---------------------------------------------------------------------
  WS02004401           JUNCTION        0.14          0.056        1.604
  WS02004402           JUNCTION        0.17          0.064        1.676
  WS02004403           JUNCTION        0.18          0.059        1.971
  WS02004404           JUNCTION        0.78          0.116        2.664
  WS02004406           JUNCTION        0.31          0.075        2.375
  WS02004405           JUNCTION        0.38          0.099        2.701
  WS02006109           JUNCTION        2.30          0.363        1.457
  WS02006110           JUNCTION        1.10          0.142        1.708
  WS02006112           JUNCTION        1.21          0.309        1.371
  WS02006230           JUNCTION        0.36          0.195        1.375
  WS02006231           JUNCTION        0.74          0.205        1.325
  WS02006232           JUNCTION        2.31          0.307        1.173
  WS02006234           JUNCTION        0.89          0.179        1.061
  WS02006235           JUNCTION        1.56          0.197        1.093
  WS02006238           JUNCTION        1.79          0.209        1.221
  WS02006240           JUNCTION        0.68          0.090        1.300
  WS02006242           JUNCTION        1.33          0.106        0.714
  WS02006243           JUNCTION        0.09          0.011        0.759
  WS02006239           JUNCTION        1.05          0.131        1.159
  WS02006252           JUNCTION        1.90          0.193        0.907
  WS02006228           JUNCTION        2.22          0.452        1.748
  YS02001748           JUNCTION        5.03          1.190        0.000
  YS02001751           JUNCTION        5.12          1.200        0.000
  YS02001754           JUNCTION        5.27          1.143        0.007
  YS02001762           JUNCTION        5.52          1.063        0.087
  YS02001765           JUNCTION        5.49          1.014        0.086
  YS02001767           JUNCTION        5.47          0.959        0.071
  YS02001770           JUNCTION        5.40          0.920        0.000
  YS02001774           JUNCTION        5.50          1.018        0.032
  YS02001779           JUNCTION        5.27          0.680        0.000
  YS02001882           JUNCTION        1.04          0.634        0.196
  YS02001884           JUNCTION        1.07          0.674        0.196
  YS02001759           JUNCTION        5.54          1.119        0.091
  YS02001887           JUNCTION        1.15          0.760        0.190
  YS02001890           JUNCTION        1.19          0.760        0.000
  YS02001898           JUNCTION        1.00          0.541        0.199
  YS02001901           JUNCTION        1.12          0.679        0.191
  YS02001904           JUNCTION        1.10          0.641        0.209
  YS02001907           JUNCTION        1.67          0.950        0.000
  YS02001910           JUNCTION        1.23          0.789        0.311
  YS02001915           JUNCTION        1.03          0.609        0.391
  YS02001918           JUNCTION        0.79          0.293        0.517
  YS02001619           JUNCTION        5.14          0.610        0.000
  YS02001629           JUNCTION        5.14          0.470        0.000
  YS02001641           JUNCTION        5.50          0.965        0.135
  YS02001644           JUNCTION        5.50          0.920        0.000
  YS02001652           JUNCTION        5.28          1.080        0.050
  YS02001655           JUNCTION        5.15          1.200        0.000
  YS02001920           JUNCTION        0.83          0.378        0.762
  YS02001658           JUNCTION        5.05          1.235        0.065
  YS02001661           JUNCTION        0.26          1.271        0.119
  YS02001622           JUNCTION        5.15          0.581        0.039
  YS02001633           JUNCTION        5.48          1.014        0.046
  YS02001649           JUNCTION        5.52          1.050        0.000
  YS02001757           JUNCTION        5.62          1.210        0.000
  YS02001895           JUNCTION        1.02          0.567        0.183
  YS02001625           JUNCTION        5.29          0.780        0.000
  YS02163301           JUNCTION        5.46          0.953        0.077
  YS02163601           JUNCTION        5.52          1.049        0.031
  YS02164001           JUNCTION        5.49          0.966        0.134
  YS02001647           JUNCTION        5.29          0.814        0.086
  YS02006553           JUNCTION        1.73          0.969        0.221
  YS02006561           JUNCTION        0.91          0.295        0.855
  YS02006556           JUNCTION        1.43          0.893        0.457
  YS02006558           JUNCTION        1.40          0.875        0.525
  YS02001783           JUNCTION        1.51          0.685        0.915
  YS02001784           JUNCTION        1.57          0.979        0.511
  YS02001786           JUNCTION        1.52          1.080        0.350
  YS02001788           JUNCTION        1.50          1.403        0.077
  YS02001790           JUNCTION        2.78          1.157        0.000
  YS02001791           JUNCTION        2.82          0.901        1.019
  YS02001793           JUNCTION        2.89          2.600        0.000
  
  
  *********************
  Node Flooding Summary
  *********************
  
  Flooding refers to all water that overflows a node, whether it ponds or not.
  --------------------------------------------------------------------------
                                                             Total   Maximum
                                 Maximum   Time of Max       Flood    Ponded
                        Hours       Rate    Occurrence      Volume     Depth
  Node                 Flooded       LPS   days hr:min    10^6 ltr    Meters
  --------------------------------------------------------------------------
  YS02001748              0.01    171.78      0  02:45       0.000     0.000
  YS02001751              0.01     14.36      0  02:45       0.000     0.000
  YS02001770              0.01      7.86      0  02:46       0.000     0.000
  YS02001779              2.60    377.35      0  03:19       1.485     0.000
  YS02001890              0.23    107.05      0  03:01       0.038     0.000
  YS02001907              0.66    618.57      0  03:01       0.743     0.000
  YS02001619              0.01     13.79      0  02:42       0.000     0.000
  YS02001629              0.01     32.29      0  02:43       0.000     0.000
  YS02001644              4.62   1123.53      0  03:17       7.355     0.000
  YS02001655              0.01    172.14      0  02:40       0.000     0.000
  YS02001649              0.09     44.80      0  02:58       0.004     0.000
  YS02001757              0.01     16.58      0  02:46       0.000     0.000
  YS02001625              1.17    317.50      0  03:01       0.560     0.000
  YS02001790              0.01    125.63      0  02:37       0.000     0.000
  YS02001793              0.01    299.98      0  02:35       0.000     0.000
  JK-storage              2.69    966.06      0  03:10       3.564     0.000
  XR-storage              5.00    573.65      0  03:01       3.988     0.000
  
  
  **********************
  Storage Volume Summary
  **********************
  
  --------------------------------------------------------------------------------------------------
                         Average     Avg  Evap Exfil       Maximum     Max    Time of Max    Maximum
                          Volume    Pcnt  Pcnt  Pcnt        Volume    Pcnt     Occurrence    Outflow
  Storage Unit           1000 m3    Full  Loss  Loss       1000 m3    Full    days hr:min        LPS
  --------------------------------------------------------------------------------------------------
  JK-storage               0.179      61     0     0         0.291     100       0  02:38     600.00
  CC-storage               2.953      19     0     0         3.857      25       0  03:52     400.00
  XR-storage               0.912      98     0     0         0.926     100       0  02:11     379.77
  
  
  ***********************
  Outfall Loading Summary
  ***********************
  
  -----------------------------------------------------------
                         Flow       Avg       Max       Total
                         Freq      Flow      Flow      Volume
  Outfall Node           Pcnt       LPS       LPS    10^6 ltr
  -----------------------------------------------------------
  WSC                  100.00    603.59   1007.27      14.496
  3                     85.83    226.57    519.68       3.815
  4                     36.51     60.10    170.68       0.440
  5                      0.00      0.00      0.00       0.000
  -----------------------------------------------------------
  System                55.58    890.26   1549.58      18.751
  
  
  ********************
  Link Flow Summary
  ********************
  
  -----------------------------------------------------------------------------
                                 Maximum  Time of Max   Maximum    Max/    Max/
                                  |Flow|   Occurrence   |Veloc|    Full    Full
  Link                 Type          LPS  days hr:min     m/sec    Flow   Depth
  -----------------------------------------------------------------------------
  WS02003066WSF200     CONDUIT    745.43     0  03:07      2.91    0.13    0.28
  WS02006287WS02006284 CONDUIT    610.99     0  03:02      2.31    0.28    0.37
  WS02006284WS02006280 CONDUIT    611.98     0  03:02      2.55    0.26    0.35
  WS02006280WS02006229 CONDUIT    612.10     0  03:02      4.12    0.13    0.24
  WS02006229WS02006228 CONDUIT    734.46     0  03:03      1.46    2.43    1.00
  WS02006256WS02006235 CONDUIT    158.12     0  00:13      2.30    1.67    1.00
  WS02006253WS02006251 CONDUIT    127.58     0  03:01      0.64    0.38    0.97
  WS02006252WS02006251 CONDUIT    400.70     0  06:42      3.19    1.47    1.00
  WS02006251WS02006249 CONDUIT    444.24     0  02:20      1.19    1.28    0.93
  WS02006249WS02006248 CONDUIT    339.12     0  06:41      1.11    1.86    0.89
  WS02006248WS02006247 CONDUIT    338.81     0  06:42      1.08    0.74    0.94
  WS02006247WS02006245 CONDUIT    338.67     0  06:41      1.04    2.69    0.98
  WS02006245WS02006243 CONDUIT    338.61     0  06:41      1.06    1.00    0.99
  WS02006243WS02006242 CONDUIT    337.51     0  06:42      0.94    0.72    1.00
  WS02006242WS02006240 CONDUIT    337.19     0  06:43      0.92    1.34    1.00
  WS02006240WS02006239 CONDUIT    337.08     0  06:47      0.96    1.06    1.00
  WS02006239WS02006238 CONDUIT    337.06     0  06:46      0.92    1.08    1.00
  WS02006238WS02006235 CONDUIT    337.29     0  06:44      0.91    0.75    1.00
  WS02006235WS02006234 CONDUIT    394.83     0  05:31      1.03    4.17    1.00
  WS02006234WS02006232 CONDUIT    393.17     0  05:32      1.02    0.80    1.00
  WS02006232WS02006231 CONDUIT    393.11     0  05:32      1.07    0.82    1.00
  WS02006231WS02006230 CONDUIT    392.79     0  05:40      1.32    5.96    1.00
  WS02006230WS02006229 CONDUIT    403.11     0  05:40      1.05    8.97    1.00
  WS02006228WS02006109 CONDUIT    734.41     0  03:03      1.46    3.21    1.00
  WS02006116WS02004401 CONDUIT    748.38     0  03:05      0.95    1.03    1.00
  WS02006115WS02006116 CONDUIT    748.02     0  03:04      0.95    0.96    1.00
  WS02006113WS02006111 CONDUIT    738.67     0  03:01      2.60    0.89    0.65
  WS02006112WS02006115 CONDUIT    747.45     0  03:04      0.95    0.44    0.99
  WS02006111WS02006112 CONDUIT    732.45     0  03:04      1.72    0.35    0.81
  WS02006110WS02006113 CONDUIT    735.60     0  03:03      1.64    0.67    0.84
  WS02006109WS02006110 CONDUIT    735.65     0  03:03      1.46    1.41    1.00
  WS02004411WS02004412 CONDUIT    745.20     0  03:06      1.10    1.06    0.81
  WS02004401WS02004402 CONDUIT    748.41     0  03:05      0.95    0.90    1.00
  WS02004413WS02003067 CONDUIT    745.05     0  03:07      1.33    0.32    0.67
  WS02004412WS02004413 CONDUIT    745.05     0  03:06      1.02    0.50    0.88
  WS02004410WS02004411 CONDUIT    745.74     0  03:06      1.09    1.02    0.81
  WS02004409WS02004410 CONDUIT    746.75     0  03:05      1.10    0.97    0.81
  WS02004407WS02004409 CONDUIT    748.54     0  03:05      1.59    0.27    0.58
  WS02004406WS02004407 CONDUIT    748.77     0  03:05      1.33    0.33    0.68
  WS02004405WS02004406 CONDUIT    748.68     0  03:05      0.95    1.48    1.00
  WS02004404WS02004405 CONDUIT    748.63     0  03:05      0.95    7.33    1.00
  WS02004403WS02004404 CONDUIT    748.46     0  03:05      0.95    0.54    1.00
  WS02004402WS02004403 CONDUIT    748.43     0  03:05      0.95    1.08    1.00
  WS02004139WS02001211 CONDUIT    367.42     0  03:50      0.56    0.46    0.57
  WS02004138WS02004139 CONDUIT    378.58     0  03:50      2.39    0.08    0.42
  WS02003067WS02003066 CONDUIT    745.32     0  03:07      1.45    0.24    0.46
  WS02001213WS02003059 CONDUIT    362.23     0  03:52      0.59    0.60    0.75
  WS02001212WS02001213 CONDUIT    363.28     0  03:51      1.18    0.56    0.44
  WS02001211WS02001212 CONDUIT    366.14     0  03:51      0.72    0.28    0.62
  WS02003072WS02003073 CONDUIT   1005.25     0  03:08      1.77    2.17    0.50
  WS02003069WS02003072 CONDUIT   1005.18     0  03:07      1.66    0.48    0.53
  WS02003060WS02003069 CONDUIT   1005.19     0  03:07      1.90    0.39    0.48
  WS02003059WS02003060 CONDUIT    362.11     0  03:52      0.80    0.24    0.67
  HS02004901HS02004770 CONDUIT     32.25     0  03:01      0.09    0.12    0.50
  HS02004876HS02004881 CONDUIT    119.33     0  03:01      1.17    1.27    0.15
  HS02004870HS02004876 CONDUIT     96.14     0  03:01      0.79    0.06    0.17
  HS02004842HS02004848 CONDUIT     15.11     0  03:01      0.07    0.01    0.33
  HS02004837HS02004842 CONDUIT     16.10     0  03:03      0.42    0.01    0.34
  HS02004830HS02004837 CONDUIT     61.24     0  03:01      0.66    0.06    0.13
  HS02004824HS02004830 CONDUIT     60.79     0  03:01      0.63    0.08    0.15
  HS02004817HS02004824 CONDUIT    117.40     0  03:02      0.30    0.05    0.56
  HS02004770HS02004777 CONDUIT    159.99     0  03:01      0.45    0.29    0.51
  HS02004799HS02004480 CONDUIT    387.39     0  03:01      1.00    0.49    0.56
  HS02004792HS02004799 CONDUIT    353.07     0  03:01      1.12    0.22    0.45
  HS02004788HS02004792 CONDUIT    202.15     0  03:02      1.22    0.13    0.24
  HS02004785HS02004788 CONDUIT    156.69     0  03:02      0.85    1.18    0.26
  HS02004777HS02004785 CONDUIT    157.13     0  03:01      0.53    0.19    0.42
  HS02004480HS02004478 CONDUIT    456.76     0  03:01      1.47    1.92    0.44
  HS02004479HS02004480 CONDUIT     74.07     0  03:02      0.22    0.07    0.53
  HS02004862HS02004870 CONDUIT     73.11     0  03:01      0.77    0.08    0.14
  HS02004848HS02004852 CONDUIT     35.11     0  03:01      0.52    0.04    0.10
  HS02004856HS02004862 CONDUIT     51.23     0  03:01      0.58    0.05    0.13
  HS02004852HS02004856 CONDUIT     35.03     0  03:02      0.32    0.04    0.16
  HS02004802HS02004478 CONDUIT    160.69     0  03:04      0.54    0.14    0.45
  HS02004478WS02006287 CONDUIT    609.85     0  03:02      2.03    0.17    0.33
  HS02004817HS02004807 CONDUIT    120.82     0  03:04      0.24    0.07    0.73
  HS02004807HS02004802 CONDUIT    156.93     0  03:03      0.45    0.30    0.51
  YS02001759YS02001757 CONDUIT    752.75     0  02:54      0.96    0.53    1.00
  YS02001762YS02001759 CONDUIT    375.86     0  02:54      0.48    0.43    1.00
  YS02001765YS02001762 CONDUIT    375.69     0  02:54      0.48    0.35    1.00
  YS02001770YS02001767 CONDUIT    375.10     0  02:54      0.48    1.49    1.00
  YS02001774YS02001770 CONDUIT    377.08     0  03:19      0.48    0.24    1.00
  YS02001779YS02001774 CONDUIT    377.41     0  03:19      0.48    0.19    1.00
  YS02001649YS02001757 CONDUIT    987.61     0  02:50      1.26    0.60    1.00
  YS02001767YS02001765 CONDUIT    375.58     0  02:54      0.48    0.47    1.00
  YS02006561YS02001783 CONDUIT    969.15     0  03:01      2.12    0.50    1.00
  YS02001783YS02001784 CONDUIT    969.20     0  03:01      1.93    1.34    1.00
  YS02001784YS02001785 CONDUIT    970.07     0  03:00      1.93    2.26    1.00
  YS02001788YS02001790 CONDUIT    970.37     0  03:00      2.25    0.72    1.00
  YS02001790YS02001791 CONDUIT    970.45     0  03:00      2.70    1.06    1.00
  YS02001791YS02001793 CONDUIT    970.54     0  03:01      5.24    0.42    1.00
  YS02001910YS02001907 CONDUIT    541.87     0  03:01      0.69    0.31    1.00
  YS02001786YS02001788 CONDUIT    970.21     0  03:01      2.17    1.87    1.00
  YS02001915YS02001910 CONDUIT    541.92     0  03:01      0.69    0.27    1.00
  YS02001918YS02001915 CONDUIT    273.80     0  02:53      0.44    0.15    1.00
  YS02001923YS02001920 CONDUIT    270.56     0  02:53      0.72    0.12    1.00
  YS02001926YS02001923 CONDUIT    266.76     0  02:53      0.82    0.38    0.95
  YS02001929YS02001926 CONDUIT    197.15     0  02:53      0.87    0.09    0.86
  YS02001920YS02001918 CONDUIT    273.73     0  02:53      0.70    0.26    1.00
  YS02001629YS02163301 CONDUIT    219.08     0  02:49      0.28    0.27    1.00
  YS02001619YS02001622 CONDUIT    338.23     0  03:01      0.60    0.50    1.00
  YS02001622YS02001625 CONDUIT    338.19     0  03:01      0.43    0.18    1.00
  YS02001625YS02001629 CONDUIT    218.97     0  02:49      0.28    0.10    1.00
  YS02163301YS02001633 CONDUIT    219.18     0  02:49      0.28    0.21    1.00
  YS02163601YS02164001 CONDUIT    460.28     0  02:49      0.59    0.41    1.00
  YS02164001YS02001641 CONDUIT    460.53     0  02:49      0.59    0.63    1.00
  YS02001641YS02001644 CONDUIT    460.34     0  02:49      0.59    1.49    1.00
  YS02001647YS02001649 CONDUIT    701.56     0  02:50      0.89    0.37    1.00
  YS02006553YS02006556 CONDUIT    671.87     0  03:32      0.86    0.57    1.00
  YS02006556YS02006558 CONDUIT    671.99     0  03:32      0.86    0.53    1.00
  YSB6556YSB1171       CONDUIT     41.33     0  03:02      0.13    0.04    0.80
  YS02001907YS02006553 CONDUIT    671.96     0  03:32      0.75    0.79    1.00
  YS02006558YS02006561 CONDUIT    969.20     0  03:01      3.43    2.14    1.00
  YS02001633YS02163601 CONDUIT    460.19     0  02:49      0.59    0.48    1.00
  YS02001644YS02001647 CONDUIT    701.35     0  02:50      0.89    0.41    1.00
  YS02001745YS02001748 CONDUIT    631.64     0  02:45      1.48    0.24    0.94
  YS02001748YS02001751 CONDUIT    398.35     0  03:01      1.03    0.20    1.00
  YS02001751YS02001754 CONDUIT    398.58     0  03:01      0.84    0.19    1.00
  YS02001754YS02001757 CONDUIT    398.56     0  03:01      0.51    0.16    1.00
  YS02001882YS02001884 CONDUIT     42.01     0  02:46      0.08    0.05    1.00
  YS02001884YS02001887 CONDUIT     67.78     0  02:40      0.10    0.09    1.00
  YS02001890YS02001895 CONDUIT    517.08     0  03:07      0.66    0.24    1.00
  YS02001895YS02001898 CONDUIT    517.12     0  03:07      0.66    0.90    1.00
  YS02001898YS02001901 CONDUIT    517.09     0  03:07      0.66    0.33    1.00
  YS02001901YS02001904 CONDUIT    516.98     0  03:07      0.66    0.80    1.00
  YS02001904YS02001907 CONDUIT    517.12     0  03:07      0.66    0.18    1.00
  YS02001887YS02001890 CONDUIT    623.19     0  03:01      0.79    1.07    1.00
  YS02001652YS02001649 CONDUIT    484.80     0  03:01      0.62    0.24    1.00
  YS02001655YS02001652 CONDUIT    484.56     0  03:01      0.89    0.24    1.00
  YS02001658YS02001655 CONDUIT    484.12     0  03:01      1.18    0.21    1.00
  YS02001661YS02001658 CONDUIT    532.67     0  02:43      1.56    0.21    1.00
  YS02001664YS02001661 CONDUIT    721.45     0  02:54      1.60    0.23    0.73
  YSB1154YSB6556       CONDUIT     41.77     0  03:01      0.19    0.08    0.69
  YSB1174YSB1171       CONDUIT     34.49     0  03:01      0.10    0.05    0.81
  YSB1171HS02004479    CONDUIT     72.19     0  03:02      0.54    0.05    0.65
  HS02004881HS02006253 CONDUIT    131.62     0  03:01      2.57    0.03    0.28
  YS02001793JiankangQianchi CONDUIT    996.82     0  02:34     12.20    0.08    1.00
  YS02001757CaochengTiaoxuchi CONDUIT   1914.94     0  02:51      2.66    0.84    1.00
  WSF200WS02003060     CONDUIT    746.01     0  03:07      1.91    0.17    0.38
  1                    CONDUIT   1007.27     0  03:08      3.33    0.35    0.41
  2                    CONDUIT    170.68     0  02:20      5.61    0.41    0.45
  3                    CONDUIT    519.68     0  03:20      9.86    0.83    0.70
  4                    CONDUIT      0.00     0  00:00      0.00    0.00    0.00
  CC-Pump-1            PUMP       200.00     0  02:10              1.00
  CC-Pump-2            PUMP       200.00     0  03:10              1.00
  JK-Pump-1            PUMP       300.00     0  02:50              1.00
  JK-Pump-2            PUMP       300.00     0  04:20              1.00
  XR-Pump-1            PUMP        95.00     0  02:10              1.00
  XR-Pump-2            PUMP        95.00     0  00:30              1.00
  XR-Pump-3            PUMP        95.00     0  00:00              1.00
  XR-Pump-4            PUMP        95.00     0  01:40              1.00
  
  
  ***************************
  Flow Classification Summary
  ***************************
  
  -------------------------------------------------------------------------------------
                      Adjusted    ---------- Fraction of Time in Flow Class ---------- 
                       /Actual         Up    Down  Sub   Sup   Up    Down  Norm  Inlet 
  Conduit               Length    Dry  Dry   Dry   Crit  Crit  Crit  Crit  Ltd   Ctrl  
  -------------------------------------------------------------------------------------
  WS02003066WSF200        1.00   0.06  0.00  0.00  0.00  0.94  0.00  0.00  0.61  0.00
  WS02006287WS02006284    1.00   0.04  0.01  0.00  0.56  0.39  0.00  0.00  0.67  0.00
  WS02006284WS02006280    1.00   0.04  0.00  0.00  0.00  0.00  0.00  0.96  0.00  0.00
  WS02006280WS02006229    1.00   0.04  0.00  0.00  0.00  0.00  0.00  0.96  0.00  0.00
  WS02006229WS02006228    1.00   0.00  0.00  0.00  1.00  0.00  0.00  0.00  0.00  0.00
  WS02006256WS02006235    1.00   0.00  0.00  0.00  0.99  0.00  0.00  0.00  0.00  0.00
  WS02006253WS02006251    1.00   0.03  0.01  0.00  0.96  0.00  0.00  0.00  0.00  0.00
  WS02006252WS02006251    1.00   0.07  0.00  0.00  0.00  0.00  0.92  0.00  0.00  0.00
  WS02006251WS02006249    1.00   0.00  0.00  0.00  1.00  0.00  0.00  0.00  0.28  0.00
  WS02006249WS02006248    1.00   0.00  0.00  0.00  0.89  0.00  0.10  0.00  0.00  0.00
  WS02006248WS02006247    1.00   0.00  0.00  0.00  0.98  0.00  0.00  0.02  0.16  0.00
  WS02006247WS02006245    1.00   0.00  0.00  0.00  0.97  0.00  0.00  0.02  0.00  0.00
  WS02006245WS02006243    1.00   0.01  0.00  0.00  0.95  0.00  0.00  0.04  0.02  0.00
  WS02006243WS02006242    1.00   0.01  0.00  0.00  0.99  0.00  0.00  0.00  0.21  0.00
  WS02006242WS02006240    1.00   0.01  0.00  0.00  0.99  0.00  0.00  0.00  0.00  0.00
  WS02006240WS02006239    1.00   0.00  0.00  0.00  0.96  0.00  0.00  0.03  0.01  0.00
  WS02006239WS02006238    1.00   0.00  0.00  0.00  1.00  0.00  0.00  0.00  0.01  0.00
  WS02006238WS02006235    1.00   0.00  0.00  0.00  1.00  0.00  0.00  0.00  0.00  0.00
  WS02006235WS02006234    1.00   0.00  0.00  0.00  0.96  0.00  0.03  0.00  0.00  0.00
  WS02006234WS02006232    1.00   0.00  0.00  0.00  1.00  0.00  0.00  0.00  0.07  0.00
  WS02006232WS02006231    1.00   0.00  0.00  0.00  0.99  0.00  0.00  0.00  0.00  0.00
  WS02006231WS02006230    1.00   0.00  0.00  0.00  0.70  0.00  0.30  0.00  0.00  0.00
  WS02006230WS02006229    1.00   0.00  0.00  0.00  0.99  0.00  0.00  0.01  0.00  0.00
  WS02006228WS02006109    1.00   0.00  0.00  0.00  1.00  0.00  0.00  0.00  0.01  0.00
  WS02006116WS02004401    1.00   0.03  0.00  0.00  0.97  0.00  0.00  0.00  0.00  0.00
  WS02006115WS02006116    1.00   0.03  0.00  0.00  0.97  0.00  0.00  0.01  0.00  0.00
  WS02006113WS02006111    1.00   0.02  0.00  0.00  0.00  0.98  0.00  0.00  0.13  0.00
  WS02006112WS02006115    1.00   0.02  0.00  0.00  0.97  0.00  0.00  0.00  0.00  0.00
  WS02006111WS02006112    1.00   0.02  0.00  0.00  0.98  0.00  0.00  0.00  0.91  0.00
  WS02006110WS02006113    1.00   0.00  0.02  0.00  0.98  0.00  0.00  0.00  0.00  0.00
  WS02006109WS02006110    1.00   0.00  0.00  0.00  1.00  0.00  0.00  0.00  0.00  0.00
  WS02004411WS02004412    1.00   0.04  0.00  0.00  0.96  0.00  0.00  0.00  0.00  0.00
  WS02004401WS02004402    1.00   0.03  0.00  0.00  0.97  0.00  0.00  0.00  0.00  0.00
  WS02004413WS02003067    1.00   0.04  0.01  0.00  0.00  0.00  0.95  0.00  0.00  0.00
  WS02004412WS02004413    1.00   0.04  0.00  0.00  0.96  0.00  0.00  0.00  0.03  0.00
  WS02004410WS02004411    1.00   0.04  0.00  0.00  0.96  0.00  0.00  0.00  0.03  0.00
  WS02004409WS02004410    1.00   0.04  0.00  0.00  0.96  0.00  0.00  0.00  0.03  0.00
  WS02004407WS02004409    1.00   0.04  0.00  0.00  0.96  0.00  0.00  0.00  0.87  0.00
  WS02004406WS02004407    1.00   0.00  0.04  0.00  0.96  0.00  0.00  0.00  0.00  0.00
  WS02004405WS02004406    1.00   0.00  0.00  0.00  1.00  0.00  0.00  0.00  0.03  0.00
  WS02004404WS02004405    1.00   0.00  0.00  0.00  1.00  0.00  0.00  0.00  0.00  0.00
  WS02004403WS02004404    1.00   0.00  0.03  0.00  0.97  0.00  0.00  0.00  0.01  0.00
  WS02004402WS02004403    1.00   0.03  0.00  0.00  0.97  0.00  0.00  0.00  0.00  0.00
  WS02004139WS02001211    1.00   0.00  0.00  0.00  1.00  0.00  0.00  0.00  0.00  0.00
  WS02004138WS02004139    1.00   0.00  0.00  0.00  1.00  0.00  0.00  0.00  1.00  0.00
  WS02003067WS02003066    1.00   0.05  0.01  0.00  0.94  0.00  0.00  0.00  0.00  0.00
  WS02001213WS02003059    1.00   0.00  0.00  0.00  1.00  0.00  0.00  0.00  0.00  0.00
  WS02001212WS02001213    1.00   0.00  0.00  0.00  0.85  0.00  0.15  0.00  0.00  0.00
  WS02001211WS02001212    1.00   0.00  0.00  0.00  1.00  0.00  0.00  0.00  0.00  0.00
  WS02003072WS02003073    1.00   0.00  0.00  0.00  0.00  0.00  0.00  1.00  0.00  0.00
  WS02003069WS02003072    1.00   0.00  0.00  0.00  1.00  0.00  0.00  0.00  0.27  0.00
  WS02003060WS02003069    1.00   0.00  0.00  0.00  0.98  0.02  0.00  0.00  0.15  0.00
  WS02003059WS02003060    1.00   0.00  0.00  0.00  1.00  0.00  0.00  0.00  0.02  0.00
  HS02004901HS02004770    1.00   0.04  0.00  0.00  0.96  0.00  0.00  0.00  0.01  0.00
  HS02004876HS02004881    1.00   0.00  0.00  0.00  0.88  0.11  0.00  0.00  0.00  0.00
  HS02004870HS02004876    1.00   0.00  0.00  0.00  0.99  0.01  0.00  0.00  0.95  0.00
  HS02004842HS02004848    1.00   0.00  0.04  0.00  0.96  0.00  0.00  0.00  0.58  0.00
  HS02004837HS02004842    1.00   0.00  0.00  0.00  1.00  0.00  0.00  0.00  0.11  0.00
  HS02004830HS02004837    1.00   0.00  0.00  0.00  1.00  0.00  0.00  0.00  0.99  0.00
  HS02004824HS02004830    1.00   0.00  0.00  0.00  1.00  0.00  0.00  0.00  0.01  0.00
  HS02004817HS02004824    1.00   0.00  0.00  0.00  1.00  0.00  0.00  0.00  0.98  0.00
  HS02004770HS02004777    1.00   0.00  0.04  0.00  0.96  0.00  0.00  0.00  0.04  0.00
  HS02004799HS02004480    1.00   0.00  0.02  0.00  0.95  0.00  0.03  0.00  0.00  0.00
  HS02004792HS02004799    1.00   0.00  0.00  0.00  1.00  0.00  0.00  0.00  0.98  0.00
  HS02004788HS02004792    1.00   0.00  0.00  0.00  1.00  0.00  0.00  0.00  0.98  0.00
  HS02004785HS02004788    1.00   0.00  0.00  0.00  1.00  0.00  0.00  0.00  0.00  0.00
  HS02004777HS02004785    1.00   0.00  0.00  0.00  1.00  0.00  0.00  0.00  0.15  0.00
  HS02004480HS02004478    1.00   0.04  0.00  0.00  0.64  0.00  0.00  0.32  0.00  0.00
  HS02004479HS02004480    1.00   0.02  0.00  0.00  0.98  0.00  0.00  0.00  0.13  0.00
  HS02004862HS02004870    1.00   0.00  0.00  0.00  1.00  0.00  0.00  0.00  0.06  0.00
  HS02004848HS02004852    1.00   0.04  0.00  0.00  0.96  0.00  0.00  0.00  0.64  0.00
  HS02004856HS02004862    1.00   0.00  0.05  0.00  0.95  0.00  0.00  0.00  0.79  0.00
  HS02004852HS02004856    1.00   0.04  0.00  0.00  0.96  0.00  0.00  0.00  0.81  0.00
  HS02004802HS02004478    1.00   0.04  0.00  0.00  0.96  0.00  0.00  0.00  0.03  0.00
  HS02004478WS02006287    1.00   0.05  0.00  0.00  0.71  0.25  0.00  0.00  0.66  0.00
  HS02004817HS02004807    1.00   0.00  0.04  0.00  0.96  0.00  0.00  0.00  0.01  0.00
  HS02004807HS02004802    1.00   0.04  0.00  0.00  0.96  0.00  0.00  0.00  0.00  0.00
  YS02001759YS02001757    1.00   0.00  0.00  0.00  1.00  0.00  0.00  0.00  0.17  0.00
  YS02001762YS02001759    1.00   0.00  0.00  0.00  1.00  0.00  0.00  0.00  0.04  0.00
  YS02001765YS02001762    1.00   0.00  0.00  0.00  1.00  0.00  0.00  0.00  0.17  0.00
  YS02001770YS02001767    1.00   0.00  0.00  0.00  1.00  0.00  0.00  0.00  0.00  0.00
  YS02001774YS02001770    1.00   0.00  0.04  0.00  0.96  0.00  0.00  0.00  0.04  0.00
  YS02001779YS02001774    1.00   0.00  0.00  0.00  1.00  0.00  0.00  0.00  0.22  0.00
  YS02001649YS02001757    1.00   0.00  0.00  0.00  1.00  0.00  0.00  0.00  0.17  0.00
  YS02001767YS02001765    1.00   0.00  0.00  0.00  1.00  0.00  0.00  0.00  0.01  0.00
  YS02006561YS02001783    1.00   0.06  0.00  0.00  0.49  0.45  0.00  0.00  0.54  0.00
  YS02001783YS02001784    1.00   0.00  0.06  0.00  0.94  0.00  0.00  0.00  0.01  0.00
  YS02001784YS02001785    1.00   0.00  0.00  0.00  1.00  0.00  0.00  0.00  0.21  0.00
  YS02001788YS02001790    1.00   0.00  0.00  0.00  0.56  0.44  0.00  0.00  0.47  0.00
  YS02001790YS02001791    1.00   0.00  0.00  0.00  0.51  0.49  0.00  0.00  0.38  0.00
  YS02001791YS02001793    1.00   0.00  0.00  0.00  0.52  0.48  0.00  0.00  0.01  0.00
  YS02001910YS02001907    1.00   0.00  0.00  0.00  0.99  0.00  0.00  0.00  0.13  0.00
  YS02001786YS02001788    1.00   0.00  0.00  0.00  0.56  0.44  0.00  0.00  0.00  0.00
  YS02001915YS02001910    1.00   0.00  0.00  0.00  0.99  0.01  0.00  0.00  0.19  0.00
  YS02001918YS02001915    1.00   0.00  0.00  0.00  1.00  0.00  0.00  0.00  0.56  0.00
  YS02001923YS02001920    1.00   0.00  0.00  0.00  1.00  0.00  0.00  0.00  0.83  0.00
  YS02001926YS02001923    1.00   0.00  0.03  0.00  0.19  0.00  0.78  0.00  0.00  0.00
  YS02001929YS02001926    1.00   0.00  0.04  0.00  0.96  0.00  0.00  0.00  0.75  0.00
  YS02001920YS02001918    1.00   0.00  0.00  0.00  1.00  0.00  0.00  0.00  0.00  0.00
  YS02001629YS02163301    1.00   0.05  0.00  0.00  0.95  0.00  0.00  0.00  0.00  0.00
  YS02001619YS02001622    1.00   0.04  0.00  0.00  0.96  0.00  0.00  0.00  0.00  0.00
  YS02001622YS02001625    1.00   0.04  0.00  0.00  0.96  0.00  0.00  0.00  0.08  0.00
  YS02001625YS02001629    1.00   0.04  0.02  0.00  0.92  0.00  0.02  0.00  0.00  0.00
  YS02163301YS02001633    1.00   0.00  0.05  0.00  0.95  0.00  0.00  0.00  0.00  0.00
  YS02163601YS02164001    1.00   0.00  0.03  0.00  0.97  0.00  0.00  0.00  0.00  0.00
  YS02164001YS02001641    1.00   0.00  0.03  0.00  0.97  0.00  0.00  0.00  0.06  0.00
  YS02001641YS02001644    1.00   0.00  0.00  0.00  1.00  0.00  0.00  0.00  0.00  0.00
  YS02001647YS02001649    1.00   0.00  0.05  0.00  0.95  0.00  0.00  0.00  0.01  0.00
  YS02006553YS02006556    1.00   0.00  0.00  0.00  1.00  0.00  0.00  0.00  0.03  0.00
  YS02006556YS02006558    1.00   0.00  0.00  0.00  1.00  0.00  0.00  0.00  0.00  0.00
  YSB6556YSB1171          1.00   0.02  0.02  0.00  0.96  0.00  0.00  0.00  0.00  0.00
  YS02001907YS02006553    1.00   0.00  0.00  0.00  1.00  0.00  0.00  0.00  0.00  0.00
  YS02006558YS02006561    1.00   0.06  0.00  0.00  0.23  0.72  0.00  0.00  0.44  0.00
  YS02001633YS02163601    1.00   0.00  0.00  0.00  1.00  0.00  0.00  0.00  0.16  0.00
  YS02001644YS02001647    1.00   0.00  0.05  0.00  0.95  0.00  0.00  0.00  0.00  0.00
  YS02001745YS02001748    1.00   0.00  0.00  0.00  0.88  0.01  0.00  0.11  0.05  0.00
  YS02001748YS02001751    1.00   0.00  0.00  0.00  0.97  0.03  0.00  0.00  0.15  0.00
  YS02001751YS02001754    1.00   0.00  0.00  0.00  0.94  0.00  0.00  0.06  0.02  0.00
  YS02001754YS02001757    1.00   0.00  0.00  0.00  1.00  0.00  0.00  0.00  0.21  0.00
  YS02001882YS02001884    1.00   0.05  0.00  0.00  0.95  0.00  0.00  0.00  0.00  0.00
  YS02001884YS02001887    1.00   0.03  0.01  0.00  0.96  0.00  0.00  0.00  0.00  0.00
  YS02001890YS02001895    1.00   0.00  0.05  0.00  0.95  0.00  0.00  0.00  0.00  0.00
  YS02001895YS02001898    1.00   0.05  0.00  0.00  0.94  0.00  0.01  0.00  0.00  0.00
  YS02001898YS02001901    1.00   0.05  0.00  0.00  0.95  0.00  0.00  0.00  0.03  0.00
  YS02001901YS02001904    1.00   0.05  0.00  0.00  0.95  0.00  0.00  0.00  0.00  0.00
  YS02001904YS02001907    1.00   0.00  0.05  0.00  0.95  0.00  0.00  0.00  0.00  0.00
  YS02001887YS02001890    1.00   0.00  0.00  0.00  0.99  0.00  0.01  0.00  0.00  0.00
  YS02001652YS02001649    1.00   0.00  0.00  0.00  1.00  0.00  0.00  0.00  0.19  0.00
  YS02001655YS02001652    1.00   0.00  0.00  0.00  0.94  0.00  0.00  0.06  0.03  0.00
  YS02001658YS02001655    1.00   0.00  0.04  0.00  0.93  0.03  0.00  0.00  0.13  0.00
  YS02001661YS02001658    1.00   0.04  0.00  0.00  0.88  0.08  0.00  0.00  0.08  0.00
  YS02001664YS02001661    1.00   0.04  0.00  0.00  0.85  0.11  0.00  0.00  0.22  0.00
  YSB1154YSB6556          1.00   0.04  0.00  0.00  0.96  0.00  0.00  0.00  0.02  0.00
  YSB1174YSB1171          1.00   0.03  0.01  0.00  0.97  0.00  0.00  0.00  0.00  0.00
  YSB1171HS02004479       1.00   0.02  0.00  0.00  0.97  0.00  0.00  0.01  0.11  0.00
  HS02004881HS02006253    1.00   0.03  0.00  0.00  0.70  0.04  0.00  0.24  0.53  0.00
  YS02001793JiankangQianchi    1.00   0.00  0.00  0.00  0.78  0.22  0.00  0.00  0.29  0.00
  YS02001757CaochengTiaoxuchi    1.00   0.00  0.07  0.00  0.90  0.03  0.00  0.00  0.00  0.00
  WSF200WS02003060        1.00   0.00  0.06  0.00  0.59  0.34  0.00  0.00  0.16  0.00
  1                       1.00   0.00  0.00  0.00  0.00  1.00  0.00  0.00  0.32  0.00
  2                       1.00   0.63  0.00  0.00  0.00  0.37  0.00  0.00  0.08  0.00
  3                       1.00   0.14  0.00  0.00  0.00  0.86  0.00  0.00  0.05  0.00
  4                       1.00   1.00  0.00  0.00  0.00  0.00  0.00  0.00  0.00  0.00
  
  
  *************************
  Conduit Surcharge Summary
  *************************
  
  ----------------------------------------------------------------------------
                                                           Hours        Hours 
                         --------- Hours Full --------   Above Full   Capacity
  Conduit                Both Ends  Upstream  Dnstream   Normal Flow   Limited
  ----------------------------------------------------------------------------
  WS02006229WS02006228        2.22      2.36      2.22      4.37         2.22
  WS02006256WS02006235        5.93      5.93      7.04      3.10         0.01
  WS02006252WS02006251        1.00      1.00      1.90      1.67         0.01
  WS02006251WS02006249        0.01      0.01      0.01      1.12         0.01
  WS02006249WS02006248        0.01      0.01      0.01      3.65         0.01
  WS02006247WS02006245        0.01      0.01      0.01      4.22         0.01
  WS02006245WS02006243        0.01      0.01      0.08      0.01         0.01
  WS02006243WS02006242        0.18      0.18      1.33      0.01         0.01
  WS02006242WS02006240        0.68      0.68      1.60      1.90         0.01
  WS02006240WS02006239        0.92      0.92      1.05      0.24         0.01
  WS02006239WS02006238        1.62      1.62      1.79      0.26         0.01
  WS02006238WS02006235        1.71      1.71      2.04      0.01         0.01
  WS02006235WS02006234        0.89      0.89      1.56      5.87         0.01
  WS02006234WS02006232        1.17      1.17      2.31      0.01         0.01
  WS02006232WS02006231        0.74      0.74      2.31      0.01         0.01
  WS02006231WS02006230        0.36      0.36      0.83      6.00         0.01
  WS02006230WS02006229        3.04      4.14      3.04      6.14         3.03
  WS02006228WS02006109        2.30      2.64      2.30      5.19         2.30
  WS02006116WS02004401        0.13      0.13      0.14      0.08         0.09
  WS02006112WS02006115        0.01      0.01      1.21      0.01         0.01
  WS02006111WS02006112        0.01      0.01      4.40      0.01         0.01
  WS02006110WS02006113        0.01      0.01      2.47      0.01         0.01
  WS02006109WS02006110        1.10      1.10      2.64      1.11         0.01
  WS02004411WS02004412        0.01      0.01      0.01      0.12         0.01
  WS02004401WS02004402        0.14      0.14      0.17      0.01         0.01
  WS02004410WS02004411        0.01      0.01      0.01      0.06         0.01
  WS02004406WS02004407        0.01      0.01      0.31      0.01         0.01
  WS02004405WS02004406        0.31      0.37      0.31      1.15         0.31
  WS02004404WS02004405        0.37      0.78      0.37      5.90         0.37
  WS02004403WS02004404        0.18      0.18      0.78      0.01         0.01
  WS02004402WS02004403        0.17      0.17      0.18      0.13         0.13
  WS02003072WS02003073        0.01      0.01      0.01      5.17         0.01
  HS02004876HS02004881        0.01      0.01      0.01      0.17         0.01
  HS02004785HS02004788        0.01      0.01      0.01      0.10         0.01
  HS02004480HS02004478        0.01      0.01      0.01      0.52         0.01
  YS02001759YS02001757        5.54      5.54      5.62      0.01         0.01
  YS02001762YS02001759        5.51      5.51      5.54      0.01         0.01
  YS02001765YS02001762        5.49      5.49      5.51      0.01         0.01
  YS02001770YS02001767        5.46      5.46      5.47      0.29         0.74
  YS02001774YS02001770        5.40      5.40      5.50      0.01         0.01
  YS02001779YS02001774        5.27      5.27      5.50      0.01         0.01
  YS02001649YS02001757        5.52      5.52      5.62      0.01         0.01
  YS02001767YS02001765        5.47      5.47      5.49      0.01         0.01
  YS02006561YS02001783        0.91      0.91      1.51      0.01         0.01
  YS02001783YS02001784        1.51      1.51      1.57      1.27         1.24
  YS02001784YS02001785        1.52      1.57      1.52      2.23         1.51
  YS02001788YS02001790        1.50      1.50      2.78      0.01         0.01
  YS02001790YS02001791        2.78      2.78      2.82      0.76         0.76
  YS02001791YS02001793        2.82      2.82      2.92      0.01         0.01
  YS02001910YS02001907        1.23      1.23      1.67      0.01         0.01
  YS02001786YS02001788        1.50      1.52      1.50      1.84         1.50
  YS02001915YS02001910        1.03      1.03      1.23      0.01         0.01
  YS02001918YS02001915        0.79      0.79      1.03      0.01         0.01
  YS02001923YS02001920        0.63      0.63      0.83      0.01         0.01
  YS02001920YS02001918        0.79      0.79      0.83      0.01         0.01
  YS02001629YS02163301        5.40      5.40      5.46      0.01         0.01
  YS02001619YS02001622        5.14      5.14      5.15      0.01         0.01
  YS02001622YS02001625        5.15      5.15      5.29      0.01         0.01
  YS02001625YS02001629        5.14      5.14      5.29      0.01         0.01
  YS02163301YS02001633        5.46      5.46      5.49      0.01         0.01
  YS02163601YS02164001        5.49      5.49      5.52      0.01         0.01
  YS02164001YS02001641        5.49      5.49      5.50      0.01         0.02
  YS02001641YS02001644        5.50      5.50      5.50      1.49         1.48
  YS02001647YS02001649        5.29      5.29      5.52      0.01         0.01
  YS02006553YS02006556        1.43      1.43      1.73      0.01         0.01
  YS02006556YS02006558        1.55      1.55      1.79      0.01         0.01
  YS02001907YS02006553        2.25      2.25      2.45      0.01         0.01
  YS02006558YS02006561        1.12      1.40      1.12      2.09         1.12
  YS02001633YS02163601        5.48      5.48      5.52      0.01         0.01
  YS02001644YS02001647        5.29      5.29      5.50      0.01         0.01
  YS02001745YS02001748        0.01      0.01      5.03      0.01         0.01
  YS02001748YS02001751        5.06      5.06      5.12      0.01         0.01
  YS02001751YS02001754        5.12      5.12      5.27      0.01         0.01
  YS02001754YS02001757        5.28      5.28      5.62      0.01         0.01
  YS02001882YS02001884        1.04      1.04      1.07      0.01         0.01
  YS02001884YS02001887        1.13      1.13      1.15      0.01         0.01
  YS02001890YS02001895        1.02      1.02      1.25      0.01         0.01
  YS02001895YS02001898        1.00      1.00      1.02      0.01         0.01
  YS02001898YS02001901        1.02      1.02      1.12      0.01         0.01
  YS02001901YS02001904        1.10      1.10      1.12      0.01         0.01
  YS02001904YS02001907        1.10      1.10      1.75      0.01         0.01
  YS02001887YS02001890        1.19      1.19      1.22      0.07         0.01
  YS02001652YS02001649        5.29      5.29      5.52      0.01         0.01
  YS02001655YS02001652        5.15      5.15      5.28      0.01         0.01
  YS02001658YS02001655        5.05      5.05      5.15      0.01         0.01
  YS02001661YS02001658        0.24      0.24      5.05      0.01         0.01
  YS02001664YS02001661        0.01      0.01      1.11      0.01         0.01
  YS02001793JiankangQianchi        2.89      2.89      4.42      0.01         0.01
  YS02001757CaochengTiaoxuchi        4.87      4.87      5.62      0.01         0.01
  
  
  ***************
  Pumping Summary
  ***************
  
  ---------------------------------------------------------------------------------------------------------
                                                  Min       Avg       Max     Total     Power    % Time Off
                        Percent   Number of      Flow      Flow      Flow    Volume     Usage    Pump Curve
  Pump                 Utilized   Start-Ups       LPS       LPS       LPS  10^6 ltr     Kw-hr    Low   High
  ---------------------------------------------------------------------------------------------------------
  CC-Pump-1               53.14           4      0.00    149.85    200.00     2.159      3.29    0.0   15.1
  CC-Pump-2               51.06           5      0.00    135.19    200.00     1.920      2.31    0.0    8.3
  JK-Pump-1               82.98           5      0.00    181.16    300.00     3.341     30.94    0.0    0.0
  JK-Pump-2               65.95           8      0.00    164.32    300.00     2.380     21.90    0.0    0.0
  XR-Pump-1               72.34           9      0.00     62.49     95.00     1.254      6.50    0.0    0.0
  XR-Pump-2               87.21           8      0.00     70.36     95.00     1.738      9.39    0.0    0.0
  XR-Pump-3               85.10           7      0.00     64.10     95.00     1.539      8.99    0.0    0.0
  XR-Pump-4               80.82           8      0.00     59.04     95.00     1.396      7.51    0.0    0.0
  

  Analysis begun on:  Thu Jan  6 22:06:06 2022
  Analysis ended on:  Thu Jan  6 22:06:09 2022
  Total elapsed time: 00:00:03