
  EPA STORM WATER MANAGEMENT MODEL - VERSION 5.1 (Build 5.3.0.dev0)
  --------------------------------------------------------------

  WARNING 04: minimum elevation drop used for Conduit WS02004404WS02004405
  WARNING 03: negative offset ignored for Link YS02001904YS02001907
  
  *********************************************************
  NOTE: The summary statistics displayed in this report are
  based on results found at every computational time step,  
  not just on results from each reporting time step.
  *********************************************************
  
  ****************
  Analysis Options
  ****************
  Flow Units ............... LPS
  Process Models:
    Rainfall/Runoff ........ YES
    RDII ................... NO
    Snowmelt ............... NO
    Groundwater ............ NO
    Flow Routing ........... YES
    Ponding Allowed ........ NO
    Water Quality .......... NO
  Infiltration Method ...... HORTON
  Flow Routing Method ...... DYNWAVE
  Surcharge Method ......... EXTRAN
  Starting Date ............ 08/28/2015 08:00:00
  Ending Date .............. 08/28/2015 15:50:00
  Antecedent Dry Days ...... 8.0
  Report Time Step ......... 00:01:00
  Wet Time Step ............ 00:01:00
  Dry Time Step ............ 00:01:00
  Routing Time Step ........ 5.00 sec
  Variable Time Step ....... YES
  Maximum Trials ........... 8
  Number of Threads ........ 4
  Head Tolerance ........... 0.001500 m
  
  
  **************************        Volume         Depth
  Runoff Quantity Continuity     hectare-m            mm
  **************************     ---------       -------
  Total Precipitation ......         6.144        13.452
  Evaporation Loss .........         0.000         0.000
  Infiltration Loss ........         1.572         3.442
  Surface Runoff ...........         3.480         7.619
  Final Storage ............         1.093         2.393
  Continuity Error (%) .....        -0.016
  
  
  **************************        Volume        Volume
  Flow Routing Continuity        hectare-m      10^6 ltr
  **************************     ---------     ---------
  Dry Weather Inflow .......         0.616         6.165
  Wet Weather Inflow .......         3.479        34.789
  Groundwater Inflow .......         0.000         0.000
  RDII Inflow ..............         0.000         0.000
  External Inflow ..........         0.102         1.024
  External Outflow .........         1.884        18.836
  Flooding Loss ............         1.794        17.942
  Evaporation Loss .........         0.000         0.000
  Exfiltration Loss ........         0.000         0.000
  Initial Stored Volume ....         0.076         0.761
  Final Stored Volume ......         0.645         6.450
  Continuity Error (%) .....        -1.147
  
  
  *************************
  Highest Continuity Errors
  *************************
  Node HS02004842 (15.27%)
  Node YS02001884 (11.29%)
  Node JK-storage (-4.62%)
  Node YSB1171 (2.79%)
  Node HS02004817 (2.78%)
  
  
  ***************************
  Time-Step Critical Elements
  ***************************
  Link 3 (47.39%)
  Link WS02006252WS02006251 (42.10%)
  Link WS02004404WS02004405 (2.64%)
  Link WS02006280WS02006229 (2.03%)
  Link WS02006238WS02006235 (1.25%)
  
  
  ********************************
  Highest Flow Instability Indexes
  ********************************
  Link YS02163601YS02164001 (45)
  Link YS02163301YS02001633 (44)
  Link YS02001629YS02163301 (44)
  Link YS02001619YS02001622 (42)
  Link YS02164001YS02001641 (40)
  
  
  *************************
  Routing Time Step Summary
  *************************
  Minimum Time Step           :     0.50 sec
  Average Time Step           :     0.86 sec
  Maximum Time Step           :     5.00 sec
  Percent in Steady State     :    -0.00
  Average Iterations per Step :     4.56
  Percent Not Converging      :    19.62
  
  
  ***************************
  Subcatchment Runoff Summary
  ***************************
  
  ------------------------------------------------------------------------------------------------------------------------------
                            Total      Total      Total      Total     Imperv       Perv      Total       Total     Peak  Runoff
                           Precip      Runon       Evap      Infil     Runoff     Runoff     Runoff      Runoff   Runoff   Coeff
  Subcatchment                 mm         mm         mm         mm         mm         mm         mm    10^6 ltr      LPS
  ------------------------------------------------------------------------------------------------------------------------------
  sub0                      13.45       0.00       0.00       0.89      11.25       0.05      11.30        0.01     3.67   0.840
  sub1                      13.45       0.00       0.00       1.45      10.71       0.03      10.74        0.07    24.31   0.799
  sub2                      13.45       0.00       0.00       4.95       7.56       0.02       7.58        0.07    22.93   0.564
  sub3                      13.45       0.00       0.00       4.96       7.52       0.02       7.54        0.17    51.30   0.560
  sub4                      13.45       0.00       0.00       1.46      10.54       0.02      10.56        0.22    61.94   0.785
  sub5                      13.45       0.00       0.00       0.91      11.19       0.03      11.22        0.13    43.21   0.834
  sub7                      13.45       0.00       0.00       1.17      10.98       0.04      11.03        0.04    13.69   0.820
  sub8                      13.45       0.00       0.00       1.17      10.97       0.04      11.01        0.07    25.15   0.819
  sub9                      13.45       0.00       0.00       1.17      10.97       0.04      11.01        0.05    18.81   0.818
  sub10                     13.45       0.00       0.00       1.04      11.08       0.03      11.11        0.12    42.29   0.826
  sub11                     13.45       0.00       0.00       1.04      11.10       0.04      11.14        0.13    46.68   0.828
  sub12                     13.45       0.00       0.00       1.69      10.51       0.06      10.58        0.09    35.94   0.786
  sub14                     13.45       0.00       0.00       1.17      10.97       0.04      11.01        0.10    37.02   0.818
  sub15                     13.45       0.00       0.00       4.00       8.43       0.04       8.47        0.15    51.03   0.630
  sub16                     13.45       0.00       0.00       4.38       8.09       0.06       8.15        0.09    32.58   0.606
  sub17                     13.45       0.00       0.00       4.25       8.21       0.06       8.27        0.07    26.73   0.615
  sub22                     13.45       0.00       0.00       5.74       6.88       0.04       6.92        0.44   159.06   0.514
  sub23                     13.45       0.00       0.00       4.93       7.60       0.05       7.65        0.36   133.95   0.569
  sub60                     13.45       0.00       0.00       1.61       8.73       0.00       8.74        2.65   387.96   0.649
  sub61                     13.45       0.00       0.00       2.28       8.88       0.00       8.88        2.74   483.52   0.660
  sub62                     13.45       0.00       0.00       1.07       9.65       0.00       9.66        2.97   496.42   0.718
  sub63                     13.45       0.00       0.00       3.90       7.77       0.00       7.77        2.35   446.68   0.578
  sub64                     13.45       0.00       0.00       2.01       8.38       0.00       8.38        2.55   368.35   0.623
  sub65                     13.45       0.00       0.00       1.75       8.52       0.00       8.52        2.62   373.60   0.634
  sub66                     13.45       0.00       0.00       3.90       7.19       0.00       7.19        2.21   337.96   0.535
  sub67                     13.45       0.00       0.00       1.07      10.19       0.01      10.19        3.15   622.58   0.758
  sub68                     13.45       0.00       0.00       1.88       9.34       0.01       9.34        2.87   531.38   0.694
  sub69                     13.45       0.00       0.00       2.01       9.68       0.01       9.69        2.26   503.32   0.720
  sub70                     13.45       9.89       0.00       7.67      12.93       0.26      13.20        3.02   423.72   0.565
  sub71                     13.45       0.00       0.00       1.07       9.40       0.00       9.40        2.22   347.35   0.699
  sub72                     13.45       0.00       0.00       0.94       7.49       0.00       7.50        1.53   163.23   0.557
  sub73                     13.45      12.84       0.00       8.67      14.26       0.27      14.53        3.41   375.92   0.552
  sub74                     13.45       0.00       0.00      10.09       2.88       0.00       2.89        1.15   273.25   0.215
  
  
  ******************
  Node Depth Summary
  ******************
  
  ---------------------------------------------------------------------------------
                                 Average  Maximum  Maximum  Time of Max    Reported
                                   Depth    Depth      HGL   Occurrence   Max Depth
  Node                 Type       Meters   Meters   Meters  days hr:min      Meters
  ---------------------------------------------------------------------------------
  WS02001211           JUNCTION     0.64     0.77     5.61     0  02:41        0.77
  WS02001212           JUNCTION     0.37     0.49     5.56     0  02:42        0.49
  WS02001213           JUNCTION     0.61     0.75     5.52     0  02:42        0.75
  WS02003069           JUNCTION     0.44     0.61     5.19     0  03:06        0.61
  WS02003072           JUNCTION     0.51     0.66     5.03     0  03:07        0.66
  WS02003073           JUNCTION     0.30     0.41     4.47     0  03:08        0.41
  WS02003060           JUNCTION     0.39     0.53     5.47     0  03:06        0.53
  WS02003066           JUNCTION     0.24     0.36     5.91     0  03:05        0.36
  WS02003059           JUNCTION     0.67     0.81     5.50     0  02:42        0.81
  WS02003067           JUNCTION     0.59     0.79     6.11     0  03:04        0.79
  WS02004401           JUNCTION     0.70     1.11     7.11     0  03:03        1.11
  WS02004402           JUNCTION     0.73     1.11     7.07     0  03:03        1.11
  WS02004403           JUNCTION     0.75     1.10     7.03     0  03:03        1.10
  WS02004404           JUNCTION     0.83     1.16     7.01     0  03:03        1.15
  WS02004406           JUNCTION     0.83     1.10     6.93     0  03:03        1.10
  WS02004409           JUNCTION     0.52     0.85     6.62     0  03:04        0.85
  WS02004410           JUNCTION     0.54     0.85     6.57     0  03:04        0.85
  WS02004411           JUNCTION     0.55     0.85     6.53     0  03:04        0.85
  WS02004412           JUNCTION     0.56     0.83     6.47     0  03:04        0.83
  WS02004413           JUNCTION     0.72     0.97     6.44     0  03:05        0.97
  WS02004405           JUNCTION     0.82     1.14     6.99     0  03:03        1.14
  WS02006109           JUNCTION     0.79     1.27     7.89     0  03:02        1.25
  WS02006110           JUNCTION     0.77     1.12     7.70     0  03:02        1.11
  WS02006111           JUNCTION     0.24     0.61     7.32     0  03:03        0.61
  WS02006112           JUNCTION     0.88     1.39     7.27     0  03:03        1.38
  WS02006113           JUNCTION     0.36     0.62     7.51     0  03:03        0.62
  WS02006115           JUNCTION     0.60     1.07     7.20     0  03:03        1.06
  WS02006116           JUNCTION     0.68     1.12     7.16     0  03:03        1.12
  WS02006230           JUNCTION     0.77     1.40     8.15     0  03:02        1.39
  WS02006231           JUNCTION     0.52     1.04     8.16     0  03:02        1.02
  WS02006232           JUNCTION     0.65     1.13     8.17     0  03:02        1.12
  WS02006234           JUNCTION     0.57     1.02     8.18     0  03:02        1.01
  WS02006235           JUNCTION     0.60     1.03     8.19     0  03:02        1.01
  WS02006238           JUNCTION     0.62     1.05     8.19     0  03:02        1.04
  WS02006240           JUNCTION     0.51     0.94     8.23     0  02:56        0.92
  WS02006242           JUNCTION     0.57     0.97     8.24     0  03:02        0.96
  WS02006243           JUNCTION     0.44     0.83     8.25     0  03:02        0.83
  WS02006245           JUNCTION     0.42     0.79     8.27     0  03:02        0.79
  WS02006247           JUNCTION     0.44     0.83     8.33     0  02:56        0.78
  WS02006248           JUNCTION     0.38     0.71     8.30     0  03:02        0.71
  WS02006249           JUNCTION     0.41     0.71     8.30     0  03:02        0.71
  WS02006239           JUNCTION     0.58     1.00     8.21     0  03:02        0.99
  WS02006251           JUNCTION     0.41     0.81     8.48     0  03:01        0.81
  WS02006252           JUNCTION     0.35     0.59     8.84     0  03:04        0.59
  WS02006253           JUNCTION     0.43     0.84     8.48     0  03:01        0.84
  WS02006256           JUNCTION     1.06     1.23     8.17     0  03:00        1.23
  WS02004138           JUNCTION     0.14     0.19     7.44     0  07:12        0.19
  WS02004407           JUNCTION     0.23     0.37     6.68     0  03:03        0.37
  WS02006228           JUNCTION     0.80     1.39     8.04     0  03:02        1.38
  WS02006229           JUNCTION     0.78     1.43     8.12     0  03:02        1.42
  WS02006280           JUNCTION     0.08     0.24     8.52     0  03:02        0.24
  WS02006284           JUNCTION     0.38     0.63     9.02     0  03:02        0.62
  WS02006287           JUNCTION     0.11     0.37     9.32     0  03:02        0.37
  WSF200               JUNCTION     0.23     0.39     5.62     0  03:05        0.39
  HS02004901           JUNCTION     0.14     0.35    10.17     0  03:01        0.35
  HS02004881           JUNCTION     0.01     0.05     9.08     0  03:01        0.05
  HS02004876           JUNCTION     0.05     0.15     9.18     0  03:01        0.15
  HS02004870           JUNCTION     0.02     0.09     9.37     0  03:01        0.09
  HS02004862           JUNCTION     0.02     0.10     9.49     0  03:01        0.10
  HS02004856           JUNCTION     0.08     0.15     9.57     0  03:01        0.15
  HS02004852           JUNCTION     0.01     0.07     9.58     0  03:02        0.07
  HS02004848           JUNCTION     0.01     0.06     9.67     0  03:01        0.06
  HS02004842           JUNCTION     0.33     0.40     9.67     0  03:01        0.40
  HS02004837           JUNCTION     0.03     0.09     9.67     0  03:01        0.09
  HS02004830           JUNCTION     0.04     0.10     9.57     0  03:01        0.10
  HS02004824           JUNCTION     0.03     0.11     9.51     0  03:02        0.11
  HS02004817           JUNCTION     0.45     0.67     9.52     0  03:02        0.67
  HS02004807           JUNCTION     0.14     0.34     9.51     0  03:02        0.34
  HS02004802           JUNCTION     0.17     0.38     9.50     0  03:02        0.38
  HS02004799           JUNCTION     0.13     0.43     9.65     0  03:01        0.43
  HS02004792           JUNCTION     0.04     0.20     9.72     0  03:01        0.19
  HS02004788           JUNCTION     0.03     0.14    10.04     0  03:02        0.14
  HS02004785           JUNCTION     0.06     0.23    10.13     0  03:02        0.23
  HS02004777           JUNCTION     0.16     0.37    10.17     0  03:01        0.37
  HS02004770           JUNCTION     0.13     0.34    10.17     0  03:01        0.34
  HS02004480           JUNCTION     0.09     0.35     9.59     0  03:01        0.35
  HS02004479           JUNCTION     0.13     0.39     9.60     0  03:01        0.39
  HS02004478           JUNCTION     0.07     0.26     9.48     0  03:01        0.26
  YS02001745           JUNCTION     0.69     0.89     8.41     0  03:29        0.89
  YS02001748           JUNCTION     1.07     2.17     9.25     0  02:47        1.33
  YS02001751           JUNCTION     1.25     2.14     9.02     0  02:47        1.54
  YS02001754           JUNCTION     1.50     2.04     8.65     0  02:47        1.82
  YS02001762           JUNCTION     1.70     2.04     8.44     0  03:00        2.03
  YS02001765           JUNCTION     1.65     1.98     8.43     0  03:05        1.97
  YS02001767           JUNCTION     1.61     1.94     8.43     0  03:00        1.92
  YS02001770           JUNCTION     1.61     1.92     8.41     0  03:00        1.91
  YS02001774           JUNCTION     1.68     1.98     8.40     0  03:52        1.97
  YS02001779           JUNCTION     1.43     1.68     8.37     0  02:47        1.68
  YS02001882           JUNCTION     0.58     1.64     8.35     0  02:51        1.62
  YS02001884           JUNCTION     0.67     1.73     8.35     0  03:00        1.72
  YS02001759           JUNCTION     1.73     2.08     8.44     0  03:00        2.07
  YS02001887           JUNCTION     0.75     1.81     8.35     0  03:00        1.80
  YS02001890           JUNCTION     0.78     1.81     8.32     0  02:50        1.81
  YS02001898           JUNCTION     0.55     1.57     8.31     0  02:51        1.56
  YS02001901           JUNCTION     0.67     1.68     8.29     0  02:51        1.67
  YS02001904           JUNCTION     0.64     1.64     8.27     0  02:51        1.63
  YS02001907           JUNCTION     0.97     1.96     8.25     0  02:51        1.96
  YS02001910           JUNCTION     0.76     1.79     8.29     0  02:52        1.78
  YS02001915           JUNCTION     0.56     1.61     8.32     0  02:52        1.59
  YS02001918           JUNCTION     0.30     1.30     8.37     0  02:52        1.28
  YS02001619           JUNCTION     1.22     1.52     8.45     0  02:47        1.47
  YS02001629           JUNCTION     1.56     1.85     8.40     0  02:44        1.84
  YS02001641           JUNCTION     1.66     1.95     8.39     0  02:48        1.93
  YS02001644           JUNCTION     1.67     1.92     8.35     0  02:47        1.92
  YS02001652           JUNCTION     1.51     2.16     8.76     0  02:57        1.93
  YS02001655           JUNCTION     1.28     2.20     9.05     0  02:57        1.83
  YS02001920           JUNCTION     0.40     1.38     8.39     0  02:52        1.36
  YS02001923           JUNCTION     0.24     1.15     8.41     0  02:52        1.12
  YS02001926           JUNCTION     0.29     0.99     8.43     0  02:52        0.92
  YS02001929           JUNCTION     0.17     0.76     8.45     0  02:52        0.70
  YS02001658           JUNCTION     1.01     2.30     9.44     0  02:58        1.73
  YS02001661           JUNCTION     0.79     2.46     9.86     0  02:58        1.69
  YS02001664           JUNCTION     0.35     0.57     8.49     0  03:37        0.56
  YS02001622           JUNCTION     1.24     1.53     8.43     0  02:47        1.49
  YS02001633           JUNCTION     1.66     1.98     8.44     0  02:48        1.94
  YS02001649           JUNCTION     1.70     2.05     8.44     0  02:53        2.05
  YS02001757           JUNCTION     1.83     2.17     8.43     0  03:37        2.17
  YS02001895           JUNCTION     0.54     1.57     8.31     0  02:56        1.56
  YS02001625           JUNCTION     1.52     1.78     8.38     0  02:44        1.78
  YS02163301           JUNCTION     1.59     1.91     8.43     0  02:47        1.88
  YS02163601           JUNCTION     1.71     2.03     8.43     0  02:48        1.98
  YS02164001           JUNCTION     1.64     1.95     8.41     0  02:48        1.91
  YS02001647           JUNCTION     1.50     1.80     8.41     0  03:16        1.79
  YSB1154              JUNCTION     0.27     0.54     9.60     0  03:01        0.54
  YSB6556              JUNCTION     0.16     0.43     9.60     0  03:02        0.43
  YSB1174              JUNCTION     0.22     0.49     9.60     0  03:01        0.49
  YSB1171              JUNCTION     0.42     0.69     9.60     0  03:01        0.69
  YS02006553           JUNCTION     0.97     1.97     8.25     0  02:59        1.96
  YS02006561           JUNCTION     0.34     1.10     7.76     0  02:51        1.08
  YS02006556           JUNCTION     0.94     1.93     8.24     0  03:00        1.92
  YS02006558           JUNCTION     0.98     1.97     8.24     0  02:59        1.96
  YS02001783           JUNCTION     0.57     1.88     8.02     0  02:40        1.47
  YS02001784           JUNCTION     0.59     1.78     7.85     0  02:40        1.41
  YS02001786           JUNCTION     0.53     1.57     7.60     0  02:40        1.26
  YS02001788           JUNCTION     0.46     1.34     7.31     0  02:40        1.13
  YS02001790           JUNCTION     0.58     1.96     7.60     0  02:39        1.29
  YS02001791           JUNCTION     0.55     2.72     8.19     0  02:39        1.27
  YS02001793           JUNCTION     0.75     3.03     7.87     0  02:38        1.80
  WS02004139           JUNCTION     0.58     0.72     5.63     0  07:20        0.72
  WSC                  OUTFALL      0.30     0.41     1.08     0  03:08        0.41
  3                    OUTFALL      0.10     0.23     6.23     0  03:00        0.23
  4                    OUTFALL      0.03     0.21     7.21     0  03:02        0.21
  5                    OUTFALL      0.00     0.00     5.00     0  00:00        0.00
  JK-storage           STORAGE      2.74     5.80     6.60     0  02:39        5.80
  CC-storage           STORAGE      1.05     1.39     8.39     0  03:29        1.39
  XR-storage           STORAGE      7.28     7.72     5.72     0  02:39        7.72
  
  
  *******************
  Node Inflow Summary
  *******************
  
  -------------------------------------------------------------------------------------------------
                                  Maximum  Maximum                  Lateral       Total        Flow
                                  Lateral    Total  Time of Max      Inflow      Inflow     Balance
                                   Inflow   Inflow   Occurrence      Volume      Volume       Error
  Node                 Type           LPS      LPS  days hr:min    10^6 ltr    10^6 ltr     Percent
  -------------------------------------------------------------------------------------------------
  WS02001211           JUNCTION      7.35   387.60     0  07:20       0.207        6.17       0.405
  WS02001212           JUNCTION      0.00   387.63     0  07:20           0        6.15       0.214
  WS02001213           JUNCTION      0.00   387.91     0  07:20           0        6.14       0.273
  WS02003069           JUNCTION      0.32  1004.17     0  03:06     0.00902        14.6       0.154
  WS02003072           JUNCTION      0.00  1004.03     0  03:07           0        14.6       0.203
  WS02003073           JUNCTION      1.82  1006.03     0  03:07      0.0514        14.6       0.228
  WS02003060           JUNCTION     16.53  1003.81     0  03:06       0.466        14.6       0.148
  WS02003066           JUNCTION      0.00   806.87     0  03:05           0         8.1       0.051
  WS02003059           JUNCTION      0.00   388.63     0  07:21           0        6.12       0.539
  WS02003067           JUNCTION      0.00   806.47     0  03:05           0        8.11       0.109
  WS02004401           JUNCTION      0.00   809.70     0  03:03           0        8.32       0.226
  WS02004402           JUNCTION      0.00   809.76     0  03:03           0         8.3       0.216
  WS02004403           JUNCTION      0.00   809.82     0  03:03           0        8.28       0.199
  WS02004404           JUNCTION      0.16   810.03     0  03:03     0.00457        8.27       0.154
  WS02004406           JUNCTION      0.00   810.11     0  03:03           0        8.24       0.375
  WS02004409           JUNCTION      0.00   809.90     0  03:03           0         8.2       0.174
  WS02004410           JUNCTION      0.00   808.19     0  03:04           0        8.19       0.201
  WS02004411           JUNCTION      0.00   807.11     0  03:04           0        8.17       0.210
  WS02004412           JUNCTION      0.00   806.55     0  03:04           0        8.16       0.231
  WS02004413           JUNCTION      0.00   806.40     0  03:04           0        8.14       0.347
  WS02004405           JUNCTION      0.04   810.08     0  03:03     0.00107        8.26       0.229
  WS02006109           JUNCTION      1.23   792.81     0  03:02      0.0347        8.35       0.219
  WS02006110           JUNCTION      0.00   792.78     0  03:02           0        8.33       0.193
  WS02006111           JUNCTION      0.00   790.65     0  03:03           0        8.31       0.038
  WS02006112           JUNCTION     26.73   809.27     0  03:03      0.0709        8.38       0.310
  WS02006113           JUNCTION      0.00   792.84     0  03:02           0        8.32       0.082
  WS02006115           JUNCTION      0.00   809.32     0  03:03           0        8.35       0.197
  WS02006116           JUNCTION      0.00   809.56     0  03:03           0        8.33       0.192
  WS02006230           JUNCTION     10.28   397.01     0  04:52        0.29        6.25       0.151
  WS02006231           JUNCTION      0.00   386.85     0  04:51           0        5.97       0.149
  WS02006232           JUNCTION      0.00   386.85     0  04:51           0        5.98       0.208
  WS02006234           JUNCTION      0.00   388.82     0  04:33           0        5.99       0.071
  WS02006235           JUNCTION      0.00   389.54     0  04:34           0        6.03       0.129
  WS02006238           JUNCTION      0.00   306.06     0  04:34           0        4.02       0.115
  WS02006240           JUNCTION      0.00   320.99     0  07:22           0        4.01       0.119
  WS02006242           JUNCTION      0.00   333.08     0  07:21           0           4       0.139
  WS02006243           JUNCTION      0.00   340.37     0  07:21           0        3.98      -0.403
  WS02006245           JUNCTION      0.00   347.39     0  02:11           0        3.98       0.115
  WS02006247           JUNCTION      0.00   358.22     0  02:10           0        3.98       0.014
  WS02006248           JUNCTION      0.00   365.63     0  02:10           0        3.98      -0.072
  WS02006249           JUNCTION      0.00   534.91     0  03:02           0        4.61       0.097
  WS02006239           JUNCTION      0.00   307.26     0  04:33           0        4.01       0.127
  WS02006251           JUNCTION      0.08   535.04     0  03:01     0.00217        4.64       0.001
  WS02006252           JUNCTION      0.00   400.00     0  02:10           0         4.2       0.002
  WS02006253           JUNCTION      3.67   134.78     0  03:01     0.00915       0.435      -0.016
  WS02006256           JUNCTION      0.00   599.89     0  05:00           0        5.64       0.049
  WS02004138           JUNCTION      0.00   380.00     0  07:10           0        5.98       0.034
  WS02004407           JUNCTION      0.00   810.17     0  03:03           0        8.21       0.075
  WS02006228           JUNCTION      0.00   791.59     0  03:02           0        8.33       0.141
  WS02006229           JUNCTION      0.00   792.83     0  03:02           0        8.34       0.120
  WS02006280           JUNCTION      0.00   611.95     0  03:02           0         2.1       0.003
  WS02006284           JUNCTION      0.10   611.06     0  03:02      0.0027         2.1       0.059
  WS02006287           JUNCTION      0.00   609.84     0  03:02           0         2.1       0.034
  WSF200               JUNCTION      0.00   806.97     0  03:05           0         8.1       0.049
  HS02004901           JUNCTION     32.58    32.58     0  03:01      0.0853      0.0856       2.107
  HS02004881           JUNCTION     13.69   131.68     0  03:01      0.0372       0.403       0.054
  HS02004876           JUNCTION     24.31   119.36     0  03:01      0.0714       0.367       0.153
  HS02004870           JUNCTION     25.15    96.63     0  03:01      0.0703       0.295       0.038
  HS02004862           JUNCTION     23.13    73.48     0  03:01      0.0763       0.225       0.080
  HS02004856           JUNCTION     18.81    51.88     0  03:01      0.0529        0.15       0.973
  HS02004852           JUNCTION      0.00    35.11     0  03:01           0      0.0975       0.061
  HS02004848           JUNCTION     51.30    51.30     0  03:01        0.17        0.17       0.030
  HS02004842           JUNCTION      0.00    15.11     0  03:01           0      0.0852      18.024
  HS02004837           JUNCTION     48.64    62.30     0  03:01       0.302       0.374       0.218
  HS02004830           JUNCTION      0.15    61.39     0  03:01     0.00423       0.364       0.341
  HS02004824           JUNCTION     61.99   121.76     0  03:01       0.222       0.584       0.093
  HS02004817           JUNCTION      0.60   117.99     0  03:02      0.0169       0.601       2.855
  HS02004807           JUNCTION     46.68   158.06     0  03:01       0.129       0.713       0.602
  HS02004802           JUNCTION      0.00   156.92     0  03:03           0       0.709       0.571
  HS02004799           JUNCTION     37.02   389.10     0  03:01       0.105        1.19       0.208
  HS02004792           JUNCTION    159.34   356.44     0  03:01       0.445        1.08       0.038
  HS02004788           JUNCTION     52.70   202.58     0  03:02       0.193       0.638       0.062
  HS02004785           JUNCTION      0.15   157.28     0  03:01     0.00423       0.447       0.112
  HS02004777           JUNCTION      0.03   160.01     0  03:01    0.000846       0.447       1.175
  HS02004770           JUNCTION    133.95   163.77     0  03:01       0.365       0.449       0.699
  HS02004480           JUNCTION      0.00   456.69     0  03:01           0         1.4       0.083
  HS02004479           JUNCTION      0.00    72.19     0  03:02           0       0.228       0.322
  HS02004478           JUNCTION      0.00   609.30     0  03:02           0         2.1       0.018
  YS02001745           JUNCTION    387.96   405.67     0  02:45        2.65        2.65       0.432
  YS02001748           JUNCTION      0.04   621.27     0  02:46     0.00127        2.64       0.864
  YS02001751           JUNCTION      0.01   399.04     0  03:01     0.00031        2.61       0.906
  YS02001754           JUNCTION      0.26   399.21     0  03:01     0.00733         2.6       0.961
  YS02001762           JUNCTION      0.00   386.21     0  02:55           0        1.86       1.154
  YS02001765           JUNCTION      0.00   386.22     0  02:55           0        1.86       1.328
  YS02001767           JUNCTION      0.54   386.26     0  02:55      0.0151        1.88       1.936
  YS02001770           JUNCTION    496.57   496.57     0  03:01        2.97        3.18       1.002
  YS02001774           JUNCTION      0.00   408.22     0  03:32           0        1.49       1.696
  YS02001779           JUNCTION      0.01   408.72     0  03:32    0.000141        1.46       1.057
  YS02001882           JUNCTION      0.00    43.45     0  02:46           0      0.0208      12.332
  YS02001884           JUNCTION      0.00    72.83     0  02:42           0      0.0565      12.721
  YS02001759           JUNCTION    483.56   772.94     0  02:55        2.74        4.36       0.529
  YS02001887           JUNCTION    623.03   623.03     0  03:01        3.16        3.19       0.274
  YS02001890           JUNCTION      0.00   623.18     0  03:01           0        3.14       0.299
  YS02001898           JUNCTION      0.00   517.24     0  03:03           0        3.09       0.116
  YS02001901           JUNCTION      0.00   517.31     0  03:03           0        3.09       0.226
  YS02001904           JUNCTION      0.00   517.23     0  03:03           0        3.08       0.205
  YS02001907           JUNCTION      0.00  1060.28     0  03:01           0        6.88       0.356
  YS02001910           JUNCTION      0.00   544.09     0  03:01           0        3.81       0.320
  YS02001915           JUNCTION    347.37   543.93     0  03:01        2.22        3.86       0.160
  YS02001918           JUNCTION      0.00   278.63     0  02:53           0        1.66       0.123
  YS02001619           JUNCTION    337.96   337.96     0  03:01        2.21        2.21       0.563
  YS02001629           JUNCTION      0.00   224.45     0  02:50           0        1.57       1.879
  YS02001641           JUNCTION      0.00   471.58     0  02:50           0        4.09       0.517
  YS02001644           JUNCTION    368.39  1142.49     0  03:29        2.55        8.94       0.295
  YS02001652           JUNCTION      0.00   482.56     0  03:02           0         2.3       1.011
  YS02001655           JUNCTION      0.15   482.64     0  03:02     0.00434        2.33       1.088
  YS02001920           JUNCTION      2.87   278.58     0  02:53      0.0809        1.64       0.190
  YS02001923           JUNCTION      0.04   259.47     0  02:53     0.00106        1.54       0.052
  YS02001926           JUNCTION      0.05   199.36     0  02:53     0.00147        1.53       0.222
  YS02001929           JUNCTION    163.23   163.23     0  03:01        1.53        1.53       0.039
  YS02001658           JUNCTION      0.00   509.49     0  03:01           0        2.35       1.035
  YS02001661           JUNCTION      0.00   745.01     0  03:00           0        3.03      -0.180
  YS02001664           JUNCTION    446.68   446.68     0  03:01        2.35        3.04       0.236
  YS02001622           JUNCTION      0.00   338.23     0  03:01           0        2.19       1.466
  YS02001633           JUNCTION    373.80   471.85     0  02:50        2.63        4.15       0.783
  YS02001649           JUNCTION      0.00  1006.25     0  02:51           0        5.04       0.745
  YS02001757           JUNCTION      0.00  1951.70     0  02:52           0        9.34       0.998
  YS02001895           JUNCTION      0.00   517.15     0  03:03           0        3.09       0.162
  YS02001625           JUNCTION      0.00   338.17     0  03:01           0        2.16       1.804
  YS02163301           JUNCTION      0.00   224.98     0  02:50           0        1.55       1.580
  YS02163601           JUNCTION      0.11   471.82     0  02:50      0.0031        4.11       0.737
  YS02164001           JUNCTION      0.00   471.77     0  02:50           0        4.09       0.496
  YS02001647           JUNCTION      0.00   716.05     0  02:50           0         3.9       0.727
  YSB1154              JUNCTION     43.21    43.21     0  03:01       0.127       0.128       1.144
  YSB6556              JUNCTION      0.00    41.77     0  03:01           0       0.129       0.980
  YSB1174              JUNCTION     35.94    35.94     0  03:01      0.0924      0.0931       1.403
  YSB1171              JUNCTION      0.00    73.33     0  03:01           0       0.227       2.865
  YS02006553           JUNCTION      0.00   671.83     0  03:31           0        6.13       0.264
  YS02006561           JUNCTION      0.00   968.99     0  03:00           0        8.97       0.006
  YS02006556           JUNCTION      0.00   671.91     0  03:31           0        6.13       0.185
  YS02006558           JUNCTION    532.26   969.20     0  03:00         2.9           9       0.062
  YS02001783           JUNCTION      0.00   969.02     0  03:01           0        8.97       0.027
  YS02001784           JUNCTION      1.06   970.05     0  03:01      0.0299           9       0.046
  YS02001786           JUNCTION      0.06   970.15     0  03:01     0.00159        8.99       0.040
  YS02001788           JUNCTION      0.07   970.24     0  03:00       0.002        8.99       0.025
  YS02001790           JUNCTION      0.15   970.34     0  03:01     0.00437           9       0.027
  YS02001791           JUNCTION      0.00   970.37     0  03:00           0        8.99       0.013
  YS02001793           JUNCTION      0.00   970.38     0  03:01           0           9      -0.002
  WS02004139           JUNCTION      0.32   380.32     0  07:12     0.00905        5.99       0.402
  WSC                  OUTFALL       0.00  1006.29     0  03:08           0        14.6       0.000
  3                    OUTFALL       0.00   587.73     0  03:00           0        3.61       0.000
  4                    OUTFALL       0.00   341.57     0  03:02           0       0.628       0.000
  5                    OUTFALL       0.00     0.00     0  00:00           0           0       0.000 ltr
  JK-storage           STORAGE       0.00   978.87     0  05:11           0        9.15      -4.414
  CC-storage           STORAGE       0.00  1951.92     0  02:52           0        8.04       0.288
  XR-storage           STORAGE     849.17   849.17     0  03:01        10.2        10.8       0.000
  
  
  **********************
  Node Surcharge Summary
  **********************
  
  Surcharging occurs when water rises above the top of the highest conduit.
  ---------------------------------------------------------------------
                                               Max. Height   Min. Depth
                                   Hours       Above Crown    Below Rim
  Node                 Type      Surcharged         Meters       Meters
  ---------------------------------------------------------------------
  WS02004401           JUNCTION        0.25          0.112        1.548
  WS02004402           JUNCTION        0.27          0.114        1.626
  WS02004403           JUNCTION        0.28          0.103        1.927
  WS02004404           JUNCTION        0.65          0.156        2.624
  WS02004406           JUNCTION        0.35          0.105        2.345
  WS02004405           JUNCTION        0.38          0.136        2.664
  WS02006109           JUNCTION        1.75          0.450        1.370
  WS02006110           JUNCTION        1.12          0.206        1.644
  WS02006112           JUNCTION        1.16          0.391        1.289
  WS02006115           JUNCTION        0.12          0.056        2.194
  WS02006116           JUNCTION        0.15          0.062        2.228
  WS02006230           JUNCTION        0.37          0.321        1.249
  WS02006231           JUNCTION        0.82          0.327        1.203
  WS02006232           JUNCTION        1.79          0.430        1.050
  WS02006234           JUNCTION        0.88          0.301        0.939
  WS02006235           JUNCTION        1.33          0.316        0.974
  WS02006238           JUNCTION        1.42          0.328        1.102
  WS02006240           JUNCTION        0.77          0.231        1.159
  WS02006242           JUNCTION        1.21          0.244        0.576
  WS02006243           JUNCTION        0.51          0.125        0.645
  WS02006245           JUNCTION        0.24          0.077        0.773
  WS02006247           JUNCTION        0.26          0.125        0.635
  WS02006239           JUNCTION        0.84          0.257        1.033
  WS02006252           JUNCTION        1.62          0.193        0.907
  WS02006228           JUNCTION        1.73          0.561        1.639
  YS02001748           JUNCTION        5.02          1.090        0.100
  YS02001751           JUNCTION        5.11          1.139        0.061
  YS02001754           JUNCTION        5.24          0.988        0.162
  YS02001762           JUNCTION        5.51          1.037        0.113
  YS02001765           JUNCTION        5.48          0.981        0.119
  YS02001767           JUNCTION        5.44          0.937        0.093
  YS02001770           JUNCTION        5.32          0.885        0.035
  YS02001774           JUNCTION        5.50          0.978        0.072
  YS02001779           JUNCTION        5.24          0.680        0.000
  YS02001882           JUNCTION        1.04          0.638        0.192
  YS02001884           JUNCTION        1.07          0.673        0.197
  YS02001759           JUNCTION        5.54          1.077        0.133
  YS02001887           JUNCTION        1.15          0.759        0.191
  YS02001890           JUNCTION        1.18          0.760        0.000
  YS02001898           JUNCTION        1.00          0.542        0.198
  YS02001901           JUNCTION        1.12          0.683        0.187
  YS02001904           JUNCTION        1.10          0.642        0.208
  YS02001907           JUNCTION        1.66          0.950        0.000
  YS02001910           JUNCTION        1.23          0.787        0.313
  YS02001915           JUNCTION        1.03          0.607        0.393
  YS02001918           JUNCTION        0.79          0.301        0.509
  YS02001619           JUNCTION        5.14          0.524        0.086
  YS02001629           JUNCTION        5.13          0.470        0.000
  YS02001641           JUNCTION        5.50          0.953        0.147
  YS02001644           JUNCTION        5.50          0.920        0.000
  YS02001652           JUNCTION        5.26          1.130        0.000
  YS02001655           JUNCTION        5.14          1.200        0.000
  YS02001920           JUNCTION        0.83          0.382        0.758
  YS02001658           JUNCTION        5.03          1.300        0.000
  YS02001661           JUNCTION        0.26          1.390        0.000
  YS02001622           JUNCTION        5.14          0.528        0.092
  YS02001633           JUNCTION        5.48          0.964        0.096
  YS02001649           JUNCTION        5.52          1.050        0.000
  YS02001757           JUNCTION        5.62          1.172        0.038
  YS02001895           JUNCTION        1.01          0.566        0.184
  YS02001625           JUNCTION        5.28          0.780        0.000
  YS02163301           JUNCTION        5.44          0.911        0.119
  YS02163601           JUNCTION        5.52          1.029        0.051
  YS02164001           JUNCTION        5.49          0.955        0.145
  YS02001647           JUNCTION        5.26          0.803        0.097
  YS02006553           JUNCTION        1.73          0.969        0.221
  YS02006561           JUNCTION        0.92          0.301        0.849
  YS02006556           JUNCTION        1.41          0.890        0.460
  YS02006558           JUNCTION        1.39          0.873        0.527
  YS02001783           JUNCTION        1.48          1.081        0.519
  YS02001784           JUNCTION        1.55          0.980        0.510
  YS02001786           JUNCTION        1.48          0.766        0.664
  YS02001788           JUNCTION        1.48          0.537        0.943
  YS02001790           JUNCTION        2.30          1.157        0.000
  YS02001791           JUNCTION        2.33          1.920        0.000
  YS02001793           JUNCTION        2.39          2.035        0.565
  
  
  *********************
  Node Flooding Summary
  *********************
  
  Flooding refers to all water that overflows a node, whether it ponds or not.
  --------------------------------------------------------------------------
                                                             Total   Maximum
                                 Maximum   Time of Max       Flood    Ponded
                        Hours       Rate    Occurrence      Volume     Depth
  Node                 Flooded       LPS   days hr:min    10^6 ltr    Meters
  --------------------------------------------------------------------------
  YS02001779              2.77    408.45      0  03:32       1.445     0.000
  YS02001890              0.23    107.07      0  03:01       0.038     0.000
  YS02001907              0.66    619.25      0  03:01       0.742     0.000
  YS02001629              0.01     18.47      0  02:47       0.000     0.000
  YS02001644              4.71   1142.37      0  03:29       7.329     0.000
  YS02001652              0.01     20.88      0  02:59       0.000     0.000
  YS02001655              0.01     21.81      0  03:00       0.000     0.000
  YS02001658              0.01     12.45      0  03:03       0.000     0.000
  YS02001661              0.01    169.50      0  03:00       0.001     0.000
  YS02001649              0.09     49.40      0  03:00       0.004     0.000
  YS02001625              1.14    317.22      0  03:01       0.555     0.000
  YS02001790              0.01    231.12      0  02:39       0.000     0.000
  YS02001791              0.01    291.20      0  02:39       0.000     0.000
  JK-storage              2.21    963.13      0  03:20       3.932     0.000
  XR-storage              4.14    659.14      0  03:01       3.896     0.000
  
  
  **********************
  Storage Volume Summary
  **********************
  
  --------------------------------------------------------------------------------------------------
                         Average     Avg  Evap Exfil       Maximum     Max    Time of Max    Maximum
                          Volume    Pcnt  Pcnt  Pcnt        Volume    Pcnt     Occurrence    Outflow
  Storage Unit           1000 m3    Full  Loss  Loss       1000 m3    Full    days hr:min        LPS
  --------------------------------------------------------------------------------------------------
  JK-storage               0.137      47     0     0         0.291     100       0  02:39     616.42
  CC-storage               2.921      19     0     0         3.879      25       0  03:29     400.00
  XR-storage               0.874      94     0     0         0.926     100       0  02:39     380.00
  
  
  ***********************
  Outfall Loading Summary
  ***********************
  
  -----------------------------------------------------------
                         Flow       Avg       Max       Total
                         Freq      Flow      Flow      Volume
  Outfall Node           Pcnt       LPS       LPS    10^6 ltr
  -----------------------------------------------------------
  WSC                   99.99    594.82   1006.29      14.597
  3                     86.95    204.72    587.73       3.611
  4                     30.73    107.76    341.57       0.628
  5                      0.00      0.00      0.00       0.000
  -----------------------------------------------------------
  System                54.42    907.30   1809.24      18.836
  
  
  ********************
  Link Flow Summary
  ********************
  
  -----------------------------------------------------------------------------
                                 Maximum  Time of Max   Maximum    Max/    Max/
                                  |Flow|   Occurrence   |Veloc|    Full    Full
  Link                 Type          LPS  days hr:min     m/sec    Flow   Depth
  -----------------------------------------------------------------------------
  WS02003066WSF200     CONDUIT    806.97     0  03:05      3.00    0.14    0.29
  WS02006287WS02006284 CONDUIT    610.96     0  03:02      2.31    0.28    0.37
  WS02006284WS02006280 CONDUIT    611.95     0  03:02      2.55    0.26    0.35
  WS02006280WS02006229 CONDUIT    611.95     0  03:02      4.12    0.13    0.25
  WS02006229WS02006228 CONDUIT    791.59     0  03:02      1.57    2.62    1.00
  WS02006256WS02006235 CONDUIT    166.25     0  00:01      2.58    1.76    1.00
  WS02006253WS02006251 CONDUIT    134.97     0  03:01      0.47    0.40    1.00
  WS02006252WS02006251 CONDUIT    400.34     0  04:31      3.19    1.47    1.00
  WS02006251WS02006249 CONDUIT    534.91     0  03:02      1.39    1.54    1.00
  WS02006249WS02006248 CONDUIT    365.63     0  02:10      1.16    2.00    0.99
  WS02006248WS02006247 CONDUIT    358.22     0  02:10      1.12    0.78    1.00
  WS02006247WS02006245 CONDUIT    347.39     0  02:11      1.09    2.75    1.00
  WS02006245WS02006243 CONDUIT    340.37     0  07:21      1.12    1.01    1.00
  WS02006243WS02006242 CONDUIT    333.08     0  07:21      1.01    0.71    1.00
  WS02006242WS02006240 CONDUIT    320.99     0  07:22      0.95    1.27    1.00
  WS02006240WS02006239 CONDUIT    307.26     0  04:33      0.98    0.97    1.00
  WS02006239WS02006238 CONDUIT    306.06     0  04:34      0.87    0.98    1.00
  WS02006238WS02006235 CONDUIT    305.78     0  04:34      1.25    0.68    1.00
  WS02006235WS02006234 CONDUIT    388.82     0  04:33      1.05    4.10    1.00
  WS02006234WS02006232 CONDUIT    386.85     0  04:51      1.13    0.78    1.00
  WS02006232WS02006231 CONDUIT    386.85     0  04:51      1.05    0.81    1.00
  WS02006231WS02006230 CONDUIT    386.73     0  04:52      1.36    5.87    1.00
  WS02006230WS02006229 CONDUIT    396.97     0  04:52      1.03    8.83    1.00
  WS02006228WS02006109 CONDUIT    791.58     0  03:02      1.57    3.46    1.00
  WS02006116WS02004401 CONDUIT    809.70     0  03:03      1.03    1.12    1.00
  WS02006115WS02006116 CONDUIT    809.56     0  03:03      1.03    1.04    1.00
  WS02006113WS02006111 CONDUIT    790.65     0  03:03      2.62    0.95    0.77
  WS02006112WS02006115 CONDUIT    809.32     0  03:03      1.03    0.48    1.00
  WS02006111WS02006112 CONDUIT    791.59     0  03:03      1.73    0.38    0.88
  WS02006110WS02006113 CONDUIT    792.84     0  03:02      1.69    0.72    0.89
  WS02006109WS02006110 CONDUIT    792.78     0  03:02      1.58    1.52    1.00
  WS02004411WS02004412 CONDUIT    806.55     0  03:04      1.14    1.15    0.84
  WS02004401WS02004402 CONDUIT    809.76     0  03:03      1.03    0.97    1.00
  WS02004413WS02003067 CONDUIT    806.47     0  03:05      1.40    0.35    0.69
  WS02004412WS02004413 CONDUIT    806.40     0  03:04      1.08    0.54    0.90
  WS02004410WS02004411 CONDUIT    807.11     0  03:04      1.14    1.10    0.85
  WS02004409WS02004410 CONDUIT    808.19     0  03:04      1.13    1.05    0.85
  WS02004407WS02004409 CONDUIT    809.90     0  03:03      1.62    0.29    0.61
  WS02004406WS02004407 CONDUIT    810.17     0  03:03      1.42    0.36    0.68
  WS02004405WS02004406 CONDUIT    810.11     0  03:03      1.03    1.60    1.00
  WS02004404WS02004405 CONDUIT    810.05     0  03:03      1.03    7.94    1.00
  WS02004403WS02004404 CONDUIT    809.87     0  03:03      1.03    0.59    1.00
  WS02004402WS02004403 CONDUIT    809.82     0  03:03      1.03    1.16    1.00
  WS02004139WS02001211 CONDUIT    380.25     0  07:20      0.57    0.48    0.58
  WS02004138WS02004139 CONDUIT    380.00     0  07:12      2.39    0.08    0.43
  WS02003067WS02003066 CONDUIT    806.87     0  03:05      1.52    0.26    0.48
  WS02001213WS02003059 CONDUIT    388.63     0  07:21      0.67    0.64    0.77
  WS02001212WS02001213 CONDUIT    387.91     0  07:20      1.29    0.60    0.46
  WS02001211WS02001212 CONDUIT    387.63     0  07:20      0.76    0.30    0.63
  WS02003072WS02003073 CONDUIT   1004.21     0  03:07      1.77    2.17    0.50
  WS02003069WS02003072 CONDUIT   1004.03     0  03:07      1.66    0.48    0.53
  WS02003060WS02003069 CONDUIT   1003.85     0  03:06      1.90    0.39    0.48
  WS02003059WS02003060 CONDUIT    389.87     0  07:21      0.91    0.25    0.67
  HS02004901HS02004770 CONDUIT     32.24     0  03:01      0.09    0.12    0.50
  HS02004876HS02004881 CONDUIT    119.32     0  03:01      1.17    1.27    0.15
  HS02004870HS02004876 CONDUIT     96.13     0  03:01      0.79    0.06    0.17
  HS02004842HS02004848 CONDUIT     15.11     0  03:01      0.07    0.01    0.33
  HS02004837HS02004842 CONDUIT     16.10     0  03:03      0.41    0.01    0.34
  HS02004830HS02004837 CONDUIT     61.24     0  03:01      0.66    0.06    0.13
  HS02004824HS02004830 CONDUIT     60.79     0  03:01      0.63    0.08    0.15
  HS02004817HS02004824 CONDUIT    117.39     0  03:02      0.30    0.05    0.56
  HS02004770HS02004777 CONDUIT    159.98     0  03:01      0.45    0.29    0.51
  HS02004799HS02004480 CONDUIT    387.38     0  03:01      1.00    0.49    0.56
  HS02004792HS02004799 CONDUIT    353.06     0  03:01      1.12    0.22    0.45
  HS02004788HS02004792 CONDUIT    202.14     0  03:02      1.22    0.13    0.24
  HS02004785HS02004788 CONDUIT    156.68     0  03:02      0.85    1.18    0.26
  HS02004777HS02004785 CONDUIT    157.13     0  03:01      0.53    0.19    0.42
  HS02004480HS02004478 CONDUIT    456.75     0  03:01      1.47    1.92    0.44
  HS02004479HS02004480 CONDUIT     74.07     0  03:02      0.22    0.07    0.53
  HS02004862HS02004870 CONDUIT     73.11     0  03:01      0.77    0.08    0.14
  HS02004848HS02004852 CONDUIT     35.11     0  03:01      0.52    0.04    0.10
  HS02004856HS02004862 CONDUIT     51.23     0  03:01      0.58    0.05    0.13
  HS02004852HS02004856 CONDUIT     35.02     0  03:02      0.32    0.04    0.16
  HS02004802HS02004478 CONDUIT    160.68     0  03:04      0.54    0.14    0.45
  HS02004478WS02006287 CONDUIT    609.84     0  03:02      2.03    0.17    0.33
  HS02004817HS02004807 CONDUIT    120.81     0  03:04      0.24    0.07    0.73
  HS02004807HS02004802 CONDUIT    156.92     0  03:03      0.45    0.30    0.51
  YS02001759YS02001757 CONDUIT    772.96     0  02:55      0.98    0.55    1.00
  YS02001762YS02001759 CONDUIT    386.25     0  02:55      0.49    0.44    1.00
  YS02001765YS02001762 CONDUIT    386.21     0  02:55      0.49    0.36    1.00
  YS02001770YS02001767 CONDUIT    385.73     0  02:55      0.49    1.53    1.00
  YS02001774YS02001770 CONDUIT    408.22     0  03:32      0.52    0.26    1.00
  YS02001779YS02001774 CONDUIT    408.71     0  03:32      0.52    0.21    1.00
  YS02001649YS02001757 CONDUIT   1006.05     0  02:51      1.28    0.61    1.00
  YS02001767YS02001765 CONDUIT    386.22     0  02:55      0.49    0.49    1.00
  YS02006561YS02001783 CONDUIT    969.02     0  03:01      2.12    0.50    1.00
  YS02001783YS02001784 CONDUIT    968.99     0  03:01      1.93    1.34    1.00
  YS02001784YS02001785 CONDUIT    970.09     0  03:01      1.93    2.26    1.00
  YS02001788YS02001790 CONDUIT    970.19     0  03:01      2.30    0.72    1.00
  YS02001790YS02001791 CONDUIT    970.37     0  03:00      2.81    1.06    1.00
  YS02001791YS02001793 CONDUIT    970.38     0  03:01      5.58    0.42    1.00
  YS02001910YS02001907 CONDUIT    543.93     0  03:01      0.69    0.31    1.00
  YS02001786YS02001788 CONDUIT    970.17     0  03:00      2.21    1.87    1.00
  YS02001915YS02001910 CONDUIT    544.09     0  03:01      0.69    0.27    1.00
  YS02001918YS02001915 CONDUIT    278.85     0  02:53      0.44    0.15    1.00
  YS02001923YS02001920 CONDUIT    275.71     0  02:53      0.71    0.12    1.00
  YS02001926YS02001923 CONDUIT    259.43     0  02:53      0.82    0.37    0.96
  YS02001929YS02001926 CONDUIT    199.31     0  02:53      0.87    0.09    0.85
  YS02001920YS02001918 CONDUIT    278.63     0  02:53      0.70    0.27    1.00
  YS02001629YS02163301 CONDUIT    224.98     0  02:50      0.29    0.28    1.00
  YS02001619YS02001622 CONDUIT    338.23     0  03:01      0.60    0.50    1.00
  YS02001622YS02001625 CONDUIT    338.17     0  03:01      0.43    0.18    1.00
  YS02001625YS02001629 CONDUIT    224.45     0  02:50      0.29    0.11    1.00
  YS02163301YS02001633 CONDUIT    224.98     0  02:50      0.29    0.21    1.00
  YS02163601YS02164001 CONDUIT    471.77     0  02:50      0.60    0.42    1.00
  YS02164001YS02001641 CONDUIT    471.58     0  02:50      0.60    0.64    1.00
  YS02001641YS02001644 CONDUIT    471.29     0  02:50      0.60    1.52    1.00
  YS02001647YS02001649 CONDUIT    716.08     0  02:50      0.91    0.38    1.00
  YS02006553YS02006556 CONDUIT    671.91     0  03:31      0.86    0.57    1.00
  YS02006556YS02006558 CONDUIT    672.22     0  03:31      0.86    0.53    1.00
  YSB6556YSB1171       CONDUIT     41.33     0  03:02      0.13    0.04    0.80
  YS02001907YS02006553 CONDUIT    671.83     0  03:31      0.75    0.79    1.00
  YS02006558YS02006561 CONDUIT    968.99     0  03:00      3.43    2.14    1.00
  YS02001633YS02163601 CONDUIT    471.71     0  02:50      0.60    0.50    1.00
  YS02001644YS02001647 CONDUIT    716.05     0  02:50      0.91    0.42    1.00
  YS02001745YS02001748 CONDUIT    621.23     0  02:46      1.48    0.24    0.95
  YS02001748YS02001751 CONDUIT    399.03     0  03:01      1.03    0.20    1.00
  YS02001751YS02001754 CONDUIT    398.95     0  03:01      0.84    0.19    1.00
  YS02001754YS02001757 CONDUIT    399.59     0  03:01      0.51    0.16    1.00
  YS02001882YS02001884 CONDUIT     43.45     0  02:46      0.08    0.05    1.00
  YS02001884YS02001887 CONDUIT     72.83     0  02:42      0.10    0.10    1.00
  YS02001890YS02001895 CONDUIT    517.15     0  03:03      0.66    0.24    1.00
  YS02001895YS02001898 CONDUIT    517.24     0  03:03      0.66    0.90    1.00
  YS02001898YS02001901 CONDUIT    517.31     0  03:03      0.66    0.33    1.00
  YS02001901YS02001904 CONDUIT    517.23     0  03:03      0.66    0.80    1.00
  YS02001904YS02001907 CONDUIT    517.25     0  03:03      0.66    0.18    1.00
  YS02001887YS02001890 CONDUIT    623.18     0  03:01      0.79    1.07    1.00
  YS02001652YS02001649 CONDUIT    483.31     0  03:02      0.62    0.24    1.00
  YS02001655YS02001652 CONDUIT    482.56     0  03:02      0.89    0.23    1.00
  YS02001658YS02001655 CONDUIT    482.48     0  03:02      1.18    0.20    1.00
  YS02001661YS02001658 CONDUIT    509.49     0  03:01      1.56    0.20    1.00
  YS02001664YS02001661 CONDUIT    745.01     0  03:00      1.62    0.23    0.73
  YSB1154YSB6556       CONDUIT     41.77     0  03:01      0.19    0.08    0.69
  YSB1174YSB1171       CONDUIT     34.49     0  03:01      0.10    0.05    0.81
  YSB1171HS02004479    CONDUIT     72.19     0  03:02      0.54    0.05    0.65
  HS02004881HS02006253 CONDUIT    131.62     0  03:01      2.16    0.03    0.39
  YS02001793JiankangQianchi CONDUIT    978.87     0  05:11     13.57    0.08    1.00
  YS02001757CaochengTiaoxuchi CONDUIT   1951.92     0  02:52      2.75    0.86    1.00
  WSF200WS02003060     CONDUIT    807.05     0  03:05      2.03    0.18    0.38
  1                    CONDUIT   1006.29     0  03:08      3.33    0.35    0.41
  2                    CONDUIT    341.57     0  03:02      6.58    0.82    0.69
  3                    CONDUIT    587.73     0  03:00     10.02    0.94    0.78
  4                    CONDUIT      0.00     0  00:00      0.00    0.00    0.00
  CC-Pump-1            PUMP       200.00     0  02:10              1.00
  CC-Pump-2            PUMP       200.00     0  02:10              1.00
  JK-Pump-1            PUMP       300.00     0  02:15              1.00
  JK-Pump-2            PUMP       300.00     0  00:00              1.00
  XR-Pump-1            PUMP        95.00     0  01:20              1.00
  XR-Pump-2            PUMP        95.00     0  00:40              1.00
  XR-Pump-3            PUMP        95.00     0  00:00              1.00
  XR-Pump-4            PUMP        95.00     0  00:20              1.00
  
  
  ***************************
  Flow Classification Summary
  ***************************
  
  -------------------------------------------------------------------------------------
                      Adjusted    ---------- Fraction of Time in Flow Class ---------- 
                       /Actual         Up    Down  Sub   Sup   Up    Down  Norm  Inlet 
  Conduit               Length    Dry  Dry   Dry   Crit  Crit  Crit  Crit  Ltd   Ctrl  
  -------------------------------------------------------------------------------------
  WS02003066WSF200        1.00   0.05  0.01  0.00  0.00  0.94  0.00  0.00  0.62  0.00
  WS02006287WS02006284    1.00   0.04  0.01  0.00  0.58  0.37  0.00  0.00  0.67  0.00
  WS02006284WS02006280    1.00   0.05  0.00  0.00  0.00  0.00  0.00  0.95  0.00  0.00
  WS02006280WS02006229    1.00   0.05  0.00  0.00  0.00  0.00  0.00  0.95  0.00  0.00
  WS02006229WS02006228    1.00   0.00  0.00  0.00  0.99  0.00  0.00  0.01  0.00  0.00
  WS02006256WS02006235    1.00   0.00  0.00  0.00  1.00  0.00  0.00  0.00  0.00  0.00
  WS02006253WS02006251    1.00   0.03  0.01  0.00  0.96  0.00  0.00  0.00  0.00  0.00
  WS02006252WS02006251    1.00   0.07  0.00  0.00  0.00  0.00  0.93  0.00  0.00  0.00
  WS02006251WS02006249    1.00   0.00  0.00  0.00  1.00  0.00  0.00  0.00  0.26  0.00
  WS02006249WS02006248    1.00   0.00  0.02  0.00  0.89  0.00  0.08  0.00  0.00  0.00
  WS02006248WS02006247    1.00   0.02  0.00  0.00  0.98  0.00  0.00  0.00  0.14  0.00
  WS02006247WS02006245    1.00   0.02  0.00  0.00  0.98  0.00  0.00  0.00  0.00  0.00
  WS02006245WS02006243    1.00   0.01  0.00  0.00  0.95  0.00  0.00  0.04  0.01  0.00
  WS02006243WS02006242    1.00   0.01  0.00  0.00  0.99  0.00  0.00  0.00  0.22  0.00
  WS02006242WS02006240    1.00   0.00  0.00  0.00  1.00  0.00  0.00  0.00  0.00  0.00
  WS02006240WS02006239    1.00   0.00  0.00  0.00  0.96  0.00  0.00  0.03  0.01  0.00
  WS02006239WS02006238    1.00   0.00  0.00  0.00  1.00  0.00  0.00  0.00  0.00  0.00
  WS02006238WS02006235    1.00   0.00  0.00  0.00  1.00  0.00  0.00  0.00  0.00  0.00
  WS02006235WS02006234    1.00   0.00  0.00  0.00  0.96  0.00  0.04  0.00  0.00  0.00
  WS02006234WS02006232    1.00   0.00  0.00  0.00  1.00  0.00  0.00  0.00  0.01  0.00
  WS02006232WS02006231    1.00   0.00  0.00  0.00  0.99  0.00  0.00  0.00  0.00  0.00
  WS02006231WS02006230    1.00   0.00  0.00  0.00  0.59  0.00  0.41  0.00  0.00  0.00
  WS02006230WS02006229    1.00   0.00  0.00  0.00  0.99  0.00  0.00  0.01  0.01  0.00
  WS02006228WS02006109    1.00   0.00  0.00  0.00  1.00  0.00  0.00  0.00  0.00  0.00
  WS02006116WS02004401    1.00   0.03  0.00  0.00  0.97  0.00  0.00  0.00  0.00  0.00
  WS02006115WS02006116    1.00   0.03  0.00  0.00  0.97  0.00  0.00  0.01  0.00  0.00
  WS02006113WS02006111    1.00   0.02  0.00  0.00  0.03  0.95  0.00  0.00  0.12  0.00
  WS02006112WS02006115    1.00   0.02  0.00  0.00  0.97  0.00  0.00  0.00  0.00  0.00
  WS02006111WS02006112    1.00   0.02  0.00  0.00  0.97  0.00  0.00  0.00  0.92  0.00
  WS02006110WS02006113    1.00   0.01  0.01  0.00  0.98  0.00  0.00  0.00  0.00  0.00
  WS02006109WS02006110    1.00   0.00  0.01  0.00  0.98  0.00  0.01  0.00  0.00  0.00
  WS02004411WS02004412    1.00   0.04  0.00  0.00  0.96  0.00  0.00  0.00  0.00  0.00
  WS02004401WS02004402    1.00   0.03  0.00  0.00  0.97  0.00  0.00  0.00  0.00  0.00
  WS02004413WS02003067    1.00   0.04  0.01  0.00  0.00  0.00  0.95  0.00  0.00  0.00
  WS02004412WS02004413    1.00   0.04  0.00  0.00  0.96  0.00  0.00  0.00  0.03  0.00
  WS02004410WS02004411    1.00   0.04  0.00  0.00  0.96  0.00  0.00  0.00  0.03  0.00
  WS02004409WS02004410    1.00   0.04  0.00  0.00  0.96  0.00  0.00  0.00  0.03  0.00
  WS02004407WS02004409    1.00   0.04  0.00  0.00  0.96  0.00  0.00  0.00  0.89  0.00
  WS02004406WS02004407    1.00   0.00  0.04  0.00  0.96  0.00  0.00  0.00  0.00  0.00
  WS02004405WS02004406    1.00   0.00  0.00  0.00  1.00  0.00  0.00  0.00  0.01  0.00
  WS02004404WS02004405    1.00   0.00  0.00  0.00  1.00  0.00  0.00  0.00  0.00  0.00
  WS02004403WS02004404    1.00   0.00  0.03  0.00  0.97  0.00  0.00  0.00  0.01  0.00
  WS02004402WS02004403    1.00   0.03  0.00  0.00  0.97  0.00  0.00  0.00  0.00  0.00
  WS02004139WS02001211    1.00   0.00  0.00  0.00  0.99  0.00  0.01  0.00  0.00  0.00
  WS02004138WS02004139    1.00   0.00  0.00  0.00  0.99  0.01  0.00  0.00  1.00  0.00
  WS02003067WS02003066    1.00   0.05  0.01  0.00  0.94  0.00  0.00  0.00  0.00  0.00
  WS02001213WS02003059    1.00   0.00  0.01  0.00  0.99  0.00  0.00  0.00  0.00  0.00
  WS02001212WS02001213    1.00   0.01  0.00  0.00  0.90  0.00  0.09  0.00  0.00  0.00
  WS02001211WS02001212    1.00   0.00  0.01  0.00  0.99  0.00  0.00  0.00  0.00  0.00
  WS02003072WS02003073    1.00   0.00  0.00  0.00  0.00  0.00  0.00  1.00  0.00  0.00
  WS02003069WS02003072    1.00   0.00  0.00  0.00  0.99  0.01  0.00  0.00  0.22  0.00
  WS02003060WS02003069    1.00   0.00  0.00  0.00  0.99  0.01  0.00  0.00  0.11  0.00
  WS02003059WS02003060    1.00   0.00  0.00  0.00  1.00  0.00  0.00  0.00  0.02  0.00
  HS02004901HS02004770    1.00   0.04  0.00  0.00  0.96  0.00  0.00  0.00  0.01  0.00
  HS02004876HS02004881    1.00   0.02  0.00  0.00  0.86  0.12  0.00  0.00  0.00  0.00
  HS02004870HS02004876    1.00   0.01  0.00  0.00  0.99  0.00  0.00  0.00  0.95  0.00
  HS02004842HS02004848    1.00   0.00  0.04  0.00  0.96  0.00  0.00  0.00  0.58  0.00
  HS02004837HS02004842    1.00   0.00  0.00  0.00  0.99  0.01  0.00  0.00  0.11  0.00
  HS02004830HS02004837    1.00   0.00  0.00  0.00  1.00  0.00  0.00  0.00  0.99  0.00
  HS02004824HS02004830    1.00   0.00  0.00  0.00  1.00  0.00  0.00  0.00  0.01  0.00
  HS02004817HS02004824    1.00   0.00  0.00  0.00  1.00  0.00  0.00  0.00  0.98  0.00
  HS02004770HS02004777    1.00   0.00  0.04  0.00  0.96  0.00  0.00  0.00  0.04  0.00
  HS02004799HS02004480    1.00   0.00  0.02  0.00  0.95  0.00  0.02  0.00  0.00  0.00
  HS02004792HS02004799    1.00   0.00  0.00  0.00  0.99  0.01  0.00  0.00  0.98  0.00
  HS02004788HS02004792    1.00   0.00  0.00  0.00  0.99  0.01  0.00  0.00  0.98  0.00
  HS02004785HS02004788    1.00   0.00  0.00  0.00  1.00  0.00  0.00  0.00  0.00  0.00
  HS02004777HS02004785    1.00   0.00  0.00  0.00  1.00  0.00  0.00  0.00  0.15  0.00
  HS02004480HS02004478    1.00   0.04  0.00  0.00  0.66  0.00  0.00  0.30  0.00  0.00
  HS02004479HS02004480    1.00   0.03  0.00  0.00  0.97  0.00  0.00  0.00  0.13  0.00
  HS02004862HS02004870    1.00   0.00  0.00  0.00  1.00  0.00  0.00  0.00  0.06  0.00
  HS02004848HS02004852    1.00   0.04  0.00  0.00  0.96  0.00  0.00  0.00  0.64  0.00
  HS02004856HS02004862    1.00   0.00  0.06  0.00  0.94  0.00  0.00  0.00  0.79  0.00
  HS02004852HS02004856    1.00   0.04  0.00  0.00  0.95  0.00  0.00  0.00  0.81  0.00
  HS02004802HS02004478    1.00   0.04  0.00  0.00  0.95  0.00  0.00  0.00  0.03  0.00
  HS02004478WS02006287    1.00   0.05  0.00  0.00  0.71  0.24  0.00  0.00  0.66  0.00
  HS02004817HS02004807    1.00   0.00  0.04  0.00  0.96  0.00  0.00  0.00  0.01  0.00
  HS02004807HS02004802    1.00   0.04  0.00  0.00  0.95  0.00  0.00  0.00  0.00  0.00
  YS02001759YS02001757    1.00   0.00  0.00  0.00  1.00  0.00  0.00  0.00  0.17  0.00
  YS02001762YS02001759    1.00   0.00  0.00  0.00  1.00  0.00  0.00  0.00  0.04  0.00
  YS02001765YS02001762    1.00   0.00  0.00  0.00  1.00  0.00  0.00  0.00  0.17  0.00
  YS02001770YS02001767    1.00   0.00  0.00  0.00  1.00  0.00  0.00  0.00  0.00  0.00
  YS02001774YS02001770    1.00   0.00  0.04  0.00  0.95  0.00  0.00  0.00  0.04  0.00
  YS02001779YS02001774    1.00   0.00  0.00  0.00  1.00  0.00  0.00  0.00  0.22  0.00
  YS02001649YS02001757    1.00   0.00  0.00  0.00  1.00  0.00  0.00  0.00  0.17  0.00
  YS02001767YS02001765    1.00   0.00  0.00  0.00  1.00  0.00  0.00  0.00  0.01  0.00
  YS02006561YS02001783    1.00   0.06  0.00  0.00  0.38  0.56  0.00  0.00  0.53  0.00
  YS02001783YS02001784    1.00   0.00  0.06  0.00  0.94  0.00  0.00  0.00  0.01  0.00
  YS02001784YS02001785    1.00   0.00  0.00  0.00  1.00  0.00  0.00  0.00  0.21  0.00
  YS02001788YS02001790    1.00   0.00  0.00  0.00  0.44  0.56  0.00  0.00  0.47  0.00
  YS02001790YS02001791    1.00   0.00  0.00  0.00  0.40  0.60  0.00  0.00  0.44  0.00
  YS02001791YS02001793    1.00   0.00  0.00  0.00  0.40  0.60  0.00  0.00  0.02  0.00
  YS02001910YS02001907    1.00   0.00  0.00  0.00  0.97  0.00  0.00  0.02  0.13  0.00
  YS02001786YS02001788    1.00   0.00  0.00  0.00  0.44  0.56  0.00  0.00  0.00  0.00
  YS02001915YS02001910    1.00   0.00  0.00  0.00  0.99  0.01  0.00  0.00  0.19  0.00
  YS02001918YS02001915    1.00   0.00  0.01  0.00  0.98  0.01  0.00  0.00  0.56  0.00
  YS02001923YS02001920    1.00   0.00  0.00  0.00  1.00  0.00  0.00  0.00  0.83  0.00
  YS02001926YS02001923    1.00   0.00  0.03  0.00  0.17  0.00  0.80  0.00  0.00  0.00
  YS02001929YS02001926    1.00   0.00  0.04  0.00  0.96  0.00  0.00  0.00  0.75  0.00
  YS02001920YS02001918    1.00   0.00  0.01  0.00  0.99  0.00  0.00  0.00  0.00  0.00
  YS02001629YS02163301    1.00   0.05  0.00  0.00  0.95  0.00  0.00  0.00  0.00  0.00
  YS02001619YS02001622    1.00   0.04  0.00  0.00  0.96  0.00  0.00  0.00  0.00  0.00
  YS02001622YS02001625    1.00   0.04  0.00  0.00  0.96  0.00  0.00  0.00  0.08  0.00
  YS02001625YS02001629    1.00   0.04  0.02  0.00  0.93  0.00  0.01  0.00  0.00  0.00
  YS02163301YS02001633    1.00   0.00  0.05  0.00  0.95  0.00  0.00  0.00  0.00  0.00
  YS02163601YS02164001    1.00   0.00  0.04  0.00  0.96  0.00  0.00  0.00  0.00  0.00
  YS02164001YS02001641    1.00   0.01  0.03  0.00  0.96  0.00  0.00  0.00  0.06  0.00
  YS02001641YS02001644    1.00   0.00  0.01  0.00  0.99  0.00  0.00  0.00  0.00  0.00
  YS02001647YS02001649    1.00   0.00  0.06  0.00  0.94  0.00  0.00  0.00  0.01  0.00
  YS02006553YS02006556    1.00   0.01  0.00  0.00  0.99  0.00  0.00  0.00  0.03  0.00
  YS02006556YS02006558    1.00   0.00  0.00  0.00  1.00  0.00  0.00  0.00  0.00  0.00
  YSB6556YSB1171          1.00   0.03  0.01  0.00  0.96  0.00  0.00  0.00  0.00  0.00
  YS02001907YS02006553    1.00   0.00  0.02  0.00  0.98  0.00  0.00  0.00  0.00  0.00
  YS02006558YS02006561    1.00   0.06  0.00  0.00  0.20  0.74  0.00  0.00  0.44  0.00
  YS02001633YS02163601    1.00   0.00  0.01  0.00  0.99  0.00  0.00  0.00  0.16  0.00
  YS02001644YS02001647    1.00   0.00  0.06  0.00  0.94  0.00  0.00  0.00  0.00  0.00
  YS02001745YS02001748    1.00   0.00  0.00  0.00  0.87  0.01  0.00  0.11  0.05  0.00
  YS02001748YS02001751    1.00   0.00  0.00  0.00  0.97  0.03  0.00  0.00  0.15  0.00
  YS02001751YS02001754    1.00   0.00  0.00  0.00  0.93  0.00  0.00  0.06  0.02  0.00
  YS02001754YS02001757    1.00   0.00  0.00  0.00  0.99  0.01  0.00  0.00  0.21  0.00
  YS02001882YS02001884    1.00   0.05  0.00  0.00  0.95  0.00  0.00  0.00  0.00  0.00
  YS02001884YS02001887    1.00   0.03  0.01  0.00  0.96  0.00  0.00  0.00  0.00  0.00
  YS02001890YS02001895    1.00   0.00  0.05  0.00  0.95  0.00  0.00  0.00  0.00  0.00
  YS02001895YS02001898    1.00   0.05  0.00  0.00  0.94  0.00  0.01  0.00  0.00  0.00
  YS02001898YS02001901    1.00   0.05  0.00  0.00  0.95  0.00  0.00  0.00  0.03  0.00
  YS02001901YS02001904    1.00   0.05  0.00  0.00  0.95  0.00  0.00  0.00  0.00  0.00
  YS02001904YS02001907    1.00   0.00  0.05  0.00  0.95  0.00  0.00  0.00  0.00  0.00
  YS02001887YS02001890    1.00   0.00  0.00  0.00  0.97  0.00  0.02  0.00  0.00  0.00
  YS02001652YS02001649    1.00   0.00  0.00  0.00  1.00  0.00  0.00  0.00  0.19  0.00
  YS02001655YS02001652    1.00   0.00  0.00  0.00  0.94  0.00  0.00  0.06  0.03  0.00
  YS02001658YS02001655    1.00   0.00  0.05  0.00  0.93  0.03  0.00  0.00  0.13  0.00
  YS02001661YS02001658    1.00   0.05  0.00  0.00  0.87  0.08  0.00  0.00  0.09  0.00
  YS02001664YS02001661    1.00   0.04  0.00  0.00  0.84  0.12  0.00  0.00  0.22  0.00
  YSB1154YSB6556          1.00   0.04  0.00  0.00  0.96  0.00  0.00  0.00  0.02  0.00
  YSB1174YSB1171          1.00   0.03  0.01  0.00  0.96  0.00  0.00  0.00  0.00  0.00
  YSB1171HS02004479       1.00   0.03  0.00  0.00  0.97  0.00  0.00  0.00  0.11  0.00
  HS02004881HS02006253    1.00   0.03  0.00  0.00  0.71  0.04  0.00  0.22  0.55  0.00
  YS02001793JiankangQianchi    1.00   0.00  0.00  0.00  0.62  0.37  0.00  0.00  0.19  0.00
  YS02001757CaochengTiaoxuchi    1.00   0.00  0.07  0.00  0.89  0.04  0.00  0.00  0.00  0.00
  WSF200WS02003060        1.00   0.00  0.05  0.00  0.54  0.41  0.00  0.00  0.22  0.00
  1                       1.00   0.00  0.00  0.00  0.00  1.00  0.00  0.00  0.46  0.00
  2                       1.00   0.69  0.00  0.00  0.00  0.31  0.00  0.00  0.07  0.00
  3                       1.00   0.13  0.00  0.00  0.00  0.87  0.00  0.00  0.26  0.00
  4                       1.00   1.00  0.00  0.00  0.00  0.00  0.00  0.00  0.00  0.00
  
  
  *************************
  Conduit Surcharge Summary
  *************************
  
  ----------------------------------------------------------------------------
                                                           Hours        Hours 
                         --------- Hours Full --------   Above Full   Capacity
  Conduit                Both Ends  Upstream  Dnstream   Normal Flow   Limited
  ----------------------------------------------------------------------------
  WS02006229WS02006228        1.73      1.82      1.73      4.44         1.73
  WS02006256WS02006235        5.99      5.99      7.69      3.79         0.01
  WS02006253WS02006251        0.21      0.21      0.31      0.01         0.01
  WS02006252WS02006251        1.01      1.01      1.62      1.46         0.01
  WS02006251WS02006249        0.06      0.22      0.06      1.13         0.06
  WS02006249WS02006248        0.01      0.01      0.06      3.80         0.01
  WS02006248WS02006247        0.07      0.07      0.26      0.01         0.01
  WS02006247WS02006245        0.24      0.29      0.24      4.51         0.24
  WS02006245WS02006243        0.26      0.26      0.51      0.02         0.01
  WS02006243WS02006242        0.56      0.56      1.21      0.01         0.01
  WS02006242WS02006240        0.77      0.77      1.41      1.29         0.01
  WS02006240WS02006239        0.79      0.79      0.84      0.01         0.01
  WS02006239WS02006238        1.35      1.35      1.42      0.01         0.01
  WS02006238WS02006235        1.38      1.38      1.66      0.01         0.01
  WS02006235WS02006234        0.88      0.88      1.33      6.00         0.01
  WS02006234WS02006232        0.92      0.92      1.79      0.01         0.01
  WS02006232WS02006231        0.82      0.82      1.79      0.01         0.01
  WS02006231WS02006230        0.37      0.37      0.85      6.02         0.01
  WS02006230WS02006229        2.49      4.16      2.49      6.14         2.48
  WS02006228WS02006109        1.75      2.18      1.75      5.41         1.75
  WS02006116WS02004401        0.24      0.24      0.25      0.20         0.20
  WS02006115WS02006116        0.14      0.14      0.15      0.09         0.09
  WS02006112WS02006115        0.12      0.12      1.15      0.01         0.01
  WS02006111WS02006112        0.01      0.01      4.64      0.01         0.01
  WS02006110WS02006113        0.01      0.01      1.99      0.01         0.01
  WS02006109WS02006110        1.12      1.12      2.18      1.12         0.01
  WS02004411WS02004412        0.01      0.01      0.01      0.23         0.01
  WS02004401WS02004402        0.25      0.25      0.27      0.01         0.01
  WS02004410WS02004411        0.01      0.01      0.01      0.18         0.01
  WS02004409WS02004410        0.01      0.01      0.01      0.10         0.01
  WS02004406WS02004407        0.01      0.01      0.35      0.01         0.01
  WS02004405WS02004406        0.35      0.38      0.35      1.13         0.35
  WS02004404WS02004405        0.38      0.65      0.38      5.90         0.38
  WS02004403WS02004404        0.28      0.28      0.65      0.01         0.01
  WS02004402WS02004403        0.27      0.27      0.28      0.24         0.23
  WS02003072WS02003073        0.01      0.01      0.01      5.36         0.01
  HS02004876HS02004881        0.01      0.01      0.01      0.17         0.01
  HS02004785HS02004788        0.01      0.01      0.01      0.10         0.01
  HS02004480HS02004478        0.01      0.01      0.01      0.52         0.01
  YS02001759YS02001757        5.54      5.54      5.62      0.01         0.01
  YS02001762YS02001759        5.51      5.51      5.54      0.01         0.01
  YS02001765YS02001762        5.48      5.48      5.51      0.01         0.01
  YS02001770YS02001767        5.42      5.43      5.44      0.32         0.74
  YS02001774YS02001770        5.32      5.32      5.50      0.01         0.01
  YS02001779YS02001774        5.24      5.24      5.50      0.01         0.01
  YS02001649YS02001757        5.52      5.52      5.62      0.01         0.01
  YS02001767YS02001765        5.44      5.44      5.48      0.01         0.01
  YS02006561YS02001783        0.92      0.92      1.48      0.01         0.01
  YS02001783YS02001784        1.48      1.48      1.55      1.31         1.24
  YS02001784YS02001785        1.48      1.55      1.48      2.22         1.48
  YS02001788YS02001790        1.48      1.48      2.30      0.01         0.01
  YS02001790YS02001791        2.30      2.30      2.33      0.76         0.75
  YS02001791YS02001793        2.33      2.33      2.42      0.01         0.01
  YS02001910YS02001907        1.23      1.23      1.66      0.01         0.01
  YS02001786YS02001788        1.48      1.48      1.48      1.84         1.48
  YS02001915YS02001910        1.03      1.03      1.23      0.01         0.01
  YS02001918YS02001915        0.79      0.79      1.03      0.01         0.01
  YS02001923YS02001920        0.62      0.62      0.83      0.01         0.01
  YS02001920YS02001918        0.79      0.79      0.83      0.01         0.01
  YS02001629YS02163301        5.33      5.33      5.44      0.01         0.01
  YS02001619YS02001622        5.14      5.14      5.14      0.01         0.01
  YS02001622YS02001625        5.14      5.14      5.28      0.01         0.01
  YS02001625YS02001629        5.13      5.13      5.28      0.01         0.01
  YS02163301YS02001633        5.44      5.44      5.49      0.01         0.01
  YS02163601YS02164001        5.49      5.49      5.52      0.01         0.01
  YS02164001YS02001641        5.49      5.49      5.50      0.01         0.02
  YS02001641YS02001644        5.50      5.50      5.50      1.48         1.42
  YS02001647YS02001649        5.26      5.26      5.52      0.01         0.01
  YS02006553YS02006556        1.41      1.41      1.73      0.01         0.01
  YS02006556YS02006558        1.56      1.56      1.79      0.01         0.01
  YS02001907YS02006553        2.24      2.24      2.45      0.01         0.01
  YS02006558YS02006561        1.12      1.39      1.12      2.09         1.12
  YS02001633YS02163601        5.48      5.48      5.52      0.01         0.01
  YS02001644YS02001647        5.26      5.26      5.50      0.01         0.01
  YS02001745YS02001748        0.01      0.01      5.02      0.01         0.01
  YS02001748YS02001751        5.05      5.05      5.11      0.01         0.01
  YS02001751YS02001754        5.11      5.11      5.24      0.01         0.01
  YS02001754YS02001757        5.26      5.26      5.62      0.01         0.01
  YS02001882YS02001884        1.04      1.04      1.07      0.01         0.01
  YS02001884YS02001887        1.12      1.12      1.15      0.01         0.01
  YS02001890YS02001895        1.01      1.01      1.24      0.01         0.01
  YS02001895YS02001898        1.00      1.00      1.01      0.01         0.01
  YS02001898YS02001901        1.02      1.02      1.12      0.01         0.01
  YS02001901YS02001904        1.10      1.10      1.12      0.01         0.01
  YS02001904YS02001907        1.10      1.10      1.76      0.01         0.01
  YS02001887YS02001890        1.18      1.18      1.21      0.07         0.01
  YS02001652YS02001649        5.27      5.27      5.52      0.01         0.01
  YS02001655YS02001652        5.14      5.14      5.26      0.01         0.01
  YS02001658YS02001655        5.03      5.03      5.14      0.01         0.01
  YS02001661YS02001658        0.24      0.24      5.03      0.01         0.01
  YS02001664YS02001661        0.01      0.01      1.30      0.01         0.01
  YS02001793JiankangQianchi        2.39      2.39      3.34      0.01         0.01
  YS02001757CaochengTiaoxuchi        4.82      4.82      5.62      0.01         0.01
  
  
  ***************
  Pumping Summary
  ***************
  
  ---------------------------------------------------------------------------------------------------------
                                                  Min       Avg       Max     Total     Power    % Time Off
                        Percent   Number of      Flow      Flow      Flow    Volume     Usage    Pump Curve
  Pump                 Utilized   Start-Ups       LPS       LPS       LPS  10^6 ltr     Kw-hr    Low   High
  ---------------------------------------------------------------------------------------------------------
  CC-Pump-1               55.27           6      0.00    142.16    200.00     2.159      3.46    0.0   14.9
  CC-Pump-2               59.51           6      0.00    126.82    200.00     2.039      3.10    0.0   10.6
  JK-Pump-1               85.10           4      0.00    171.51    300.00     3.090     37.83    0.0    0.0
  JK-Pump-2               70.20          10      0.00    176.47    300.00     2.544     28.66    0.0    0.0
  XR-Pump-1               78.72           7      0.00     66.63     95.00     1.425      8.97    0.0    0.0
  XR-Pump-2               82.95          10      0.00     61.31     95.00     1.453      9.60    0.0    0.0
  XR-Pump-3               80.85           6      0.00     72.93     95.00     1.625     11.14    0.0    0.0
  XR-Pump-4               74.45           6      0.00     69.62     95.00     1.482     10.51    0.0    0.0
  

  Analysis begun on:  Thu Jan  6 20:58:40 2022
  Analysis ended on:  Thu Jan  6 20:58:44 2022
  Total elapsed time: 00:00:04