
  EPA STORM WATER MANAGEMENT MODEL - VERSION 5.1 (Build 5.3.0.dev0)
  --------------------------------------------------------------

  WARNING 04: minimum elevation drop used for Conduit WS02004404WS02004405
  WARNING 03: negative offset ignored for Link YS02001904YS02001907
  
  *********************************************************
  NOTE: The summary statistics displayed in this report are
  based on results found at every computational time step,  
  not just on results from each reporting time step.
  *********************************************************
  
  ****************
  Analysis Options
  ****************
  Flow Units ............... LPS
  Process Models:
    Rainfall/Runoff ........ YES
    RDII ................... NO
    Snowmelt ............... NO
    Groundwater ............ NO
    Flow Routing ........... YES
    Ponding Allowed ........ NO
    Water Quality .......... NO
  Infiltration Method ...... HORTON
  Flow Routing Method ...... DYNWAVE
  Surcharge Method ......... EXTRAN
  Starting Date ............ 08/28/2015 08:00:00
  Ending Date .............. 08/28/2015 15:50:00
  Antecedent Dry Days ...... 8.0
  Report Time Step ......... 00:01:00
  Wet Time Step ............ 00:01:00
  Dry Time Step ............ 00:01:00
  Routing Time Step ........ 5.00 sec
  Variable Time Step ....... YES
  Maximum Trials ........... 8
  Number of Threads ........ 4
  Head Tolerance ........... 0.001500 m
  
  
  **************************        Volume         Depth
  Runoff Quantity Continuity     hectare-m            mm
  **************************     ---------       -------
  Total Precipitation ......        10.887        23.836
  Evaporation Loss .........         0.000         0.000
  Infiltration Loss ........         2.344         5.132
  Surface Runoff ...........         7.303        15.990
  Final Storage ............         1.241         2.717
  Continuity Error (%) .....        -0.012
  
  
  **************************        Volume        Volume
  Flow Routing Continuity        hectare-m      10^6 ltr
  **************************     ---------     ---------
  Dry Weather Inflow .......         0.616         6.165
  Wet Weather Inflow .......         7.301        73.016
  Groundwater Inflow .......         0.000         0.000
  RDII Inflow ..............         0.000         0.000
  External Inflow ..........         0.102         1.024
  External Outflow .........         2.294        22.937
  Flooding Loss ............         5.174        51.741
  Evaporation Loss .........         0.000         0.000
  Exfiltration Loss ........         0.000         0.000
  Initial Stored Volume ....         0.076         0.761
  Final Stored Volume ......         0.658         6.579
  Continuity Error (%) .....        -0.360
  
  
  *************************
  Highest Continuity Errors
  *************************
  Node YS02001884 (13.63%)
  Node HS02004842 (8.73%)
  Node JK-storage (-1.87%)
  Node HS02004817 (1.69%)
  Node YSB1171 (1.47%)
  
  
  ***************************
  Time-Step Critical Elements
  ***************************
  Link 3 (61.96%)
  Link WS02006252WS02006251 (30.32%)
  Link WS02006238WS02006235 (2.08%)
  
  
  ********************************
  Highest Flow Instability Indexes
  ********************************
  Link YS02163601YS02164001 (32)
  Link YS02163301YS02001633 (31)
  Link WS02006113WS02006111 (31)
  Link YS02001629YS02163301 (30)
  Link YS02001619YS02001622 (30)
  
  
  *************************
  Routing Time Step Summary
  *************************
  Minimum Time Step           :     0.30 sec
  Average Time Step           :     0.75 sec
  Maximum Time Step           :     5.00 sec
  Percent in Steady State     :    -0.00
  Average Iterations per Step :     3.78
  Percent Not Converging      :    12.84
  
  
  ***************************
  Subcatchment Runoff Summary
  ***************************
  
  ------------------------------------------------------------------------------------------------------------------------------
                            Total      Total      Total      Total     Imperv       Perv      Total       Total     Peak  Runoff
                           Precip      Runon       Evap      Infil     Runoff     Runoff     Runoff      Runoff   Runoff   Coeff
  Subcatchment                 mm         mm         mm         mm         mm         mm         mm    10^6 ltr      LPS
  ------------------------------------------------------------------------------------------------------------------------------
  sub0                      23.84       0.00       0.00       1.03      20.90       0.64      21.54        0.02     4.74   0.904
  sub1                      23.84       0.00       0.00       1.74      19.95       0.88      20.83        0.14    30.53   0.874
  sub2                      23.84       0.00       0.00       6.87      14.10       1.95      16.05        0.15    28.29   0.673
  sub3                      23.84       0.00       0.00       7.14      14.06       1.68      15.74        0.35    61.76   0.660
  sub4                      23.84       0.00       0.00       1.87      19.78       0.75      20.54        0.43    72.83   0.862
  sub5                      23.84       0.00       0.00       1.08      20.85       0.59      21.44        0.24    54.28   0.899
  sub7                      23.84       0.00       0.00       1.37      20.44       0.77      21.21        0.07    17.57   0.890
  sub8                      23.84       0.00       0.00       1.38      20.42       0.76      21.19        0.14    32.08   0.889
  sub9                      23.84       0.00       0.00       1.39      20.42       0.76      21.18        0.10    23.95   0.889
  sub10                     23.84       0.00       0.00       1.24      20.63       0.67      21.30        0.23    53.40   0.894
  sub11                     23.84       0.00       0.00       1.22      20.65       0.69      21.34        0.25    59.71   0.895
  sub12                     23.84       0.00       0.00       1.98      19.55       1.11      20.66        0.18    46.17   0.867
  sub14                     23.84       0.00       0.00       1.39      20.42       0.76      21.18        0.20    47.08   0.888
  sub15                     23.84       0.00       0.00       5.16      15.70       1.99      17.70        0.30    64.58   0.742
  sub16                     23.84       0.00       0.00       5.46      15.05       2.40      17.45        0.18    41.69   0.732
  sub17                     23.84       0.00       0.00       5.32      15.27       2.31      17.58        0.15    34.22   0.738
  sub22                     23.84       0.00       0.00       7.63      12.80       2.62      15.42        0.97   202.91   0.647
  sub23                     23.84       0.00       0.00       6.37      14.15       2.45      16.60        0.79   171.10   0.696
  sub60                     23.84       0.00       0.00       2.46      17.68       0.40      18.08        5.48   635.50   0.759
  sub61                     23.84       0.00       0.00       3.48      17.44       0.57      18.00        5.55   687.97   0.755
  sub62                     23.84       0.00       0.00       1.52      19.11       0.39      19.50        5.99   726.55   0.818
  sub63                     23.84       0.00       0.00       6.22      15.11       0.70      15.81        4.78   606.27   0.663
  sub64                     23.84       0.00       0.00       3.15      17.01       0.42      17.43        5.30   611.50   0.731
  sub65                     23.84       0.00       0.00       2.70      17.34       0.40      17.73        5.45   625.37   0.744
  sub66                     23.84       0.00       0.00       6.42      14.44       0.49      14.93        4.58   541.58   0.626
  sub67                     23.84       0.00       0.00       1.46      19.71       0.45      20.16        6.22   787.40   0.846
  sub68                     23.84       0.00       0.00       2.78      18.22       0.56      18.78        5.78   724.10   0.788
  sub69                     23.84       0.00       0.00       2.86      18.50       0.72      19.22        4.49   586.55   0.806
  sub70                     23.84      19.62       0.00       9.95      26.14       3.78      29.92        6.85   801.71   0.689
  sub71                     23.84       0.00       0.00       1.54      18.81       0.36      19.18        4.53   536.91   0.805
  sub72                     23.84       0.00       0.00       1.45      16.32       0.22      16.55        3.37   330.66   0.694
  sub73                     23.84      29.13       0.00       9.95      31.58       5.28      36.86        8.66   884.85   0.696
  sub74                     23.84       0.00       0.00      17.30       5.48       0.57       6.05        2.42   323.16   0.254
  
  
  ******************
  Node Depth Summary
  ******************
  
  ---------------------------------------------------------------------------------
                                 Average  Maximum  Maximum  Time of Max    Reported
                                   Depth    Depth      HGL   Occurrence   Max Depth
  Node                 Type       Meters   Meters   Meters  days hr:min      Meters
  ---------------------------------------------------------------------------------
  WS02001211           JUNCTION     0.65     0.82     5.65     0  01:43        0.82
  WS02001212           JUNCTION     0.38     0.55     5.61     0  01:43        0.55
  WS02001213           JUNCTION     0.62     0.82     5.59     0  01:43        0.82
  WS02003069           JUNCTION     0.46     0.69     5.27     0  01:44        0.69
  WS02003072           JUNCTION     0.53     0.73     5.11     0  01:44        0.73
  WS02003073           JUNCTION     0.32     0.46     4.52     0  01:45        0.46
  WS02003060           JUNCTION     0.41     0.61     5.54     0  01:44        0.61
  WS02003066           JUNCTION     0.26     0.37     5.93     0  01:41        0.37
  WS02003059           JUNCTION     0.69     0.88     5.57     0  01:43        0.88
  WS02003067           JUNCTION     0.61     0.80     6.12     0  01:41        0.80
  WS02004401           JUNCTION     0.77     1.17     7.17     0  01:36        1.17
  WS02004402           JUNCTION     0.79     1.17     7.13     0  01:33        1.16
  WS02004403           JUNCTION     0.81     1.17     7.10     0  01:33        1.14
  WS02004404           JUNCTION     0.87     1.21     7.06     0  01:33        1.19
  WS02004406           JUNCTION     0.87     1.15     6.98     0  01:33        1.13
  WS02004409           JUNCTION     0.57     0.90     6.67     0  01:39        0.90
  WS02004410           JUNCTION     0.58     0.89     6.61     0  01:40        0.89
  WS02004411           JUNCTION     0.59     0.88     6.56     0  01:39        0.88
  WS02004412           JUNCTION     0.60     0.86     6.50     0  01:40        0.86
  WS02004413           JUNCTION     0.75     1.00     6.47     0  01:40        1.00
  WS02004405           JUNCTION     0.87     1.18     7.03     0  01:33        1.17
  WS02006109           JUNCTION     0.86     1.36     7.98     0  01:36        1.35
  WS02006110           JUNCTION     0.82     1.20     7.78     0  01:37        1.19
  WS02006111           JUNCTION     0.29     0.73     7.44     0  01:36        0.73
  WS02006112           JUNCTION     0.95     1.47     7.35     0  01:37        1.46
  WS02006113           JUNCTION     0.39     0.70     7.60     0  01:37        0.70
  WS02006115           JUNCTION     0.67     1.14     7.28     0  01:35        1.13
  WS02006116           JUNCTION     0.75     1.19     7.23     0  01:35        1.18
  WS02006230           JUNCTION     0.87     1.50     8.25     0  01:36        1.50
  WS02006231           JUNCTION     0.60     1.13     8.26     0  01:29        1.12
  WS02006232           JUNCTION     0.73     1.23     8.27     0  01:32        1.20
  WS02006234           JUNCTION     0.64     1.16     8.32     0  01:32        1.09
  WS02006235           JUNCTION     0.67     1.16     8.32     0  01:32        1.08
  WS02006238           JUNCTION     0.69     1.19     8.33     0  01:32        1.10
  WS02006240           JUNCTION     0.58     1.24     8.53     0  01:32        0.96
  WS02006242           JUNCTION     0.63     1.55     8.82     0  01:30        0.98
  WS02006243           JUNCTION     0.50     1.19     8.61     0  01:32        0.84
  WS02006245           JUNCTION     0.47     1.07     8.55     0  01:32        0.78
  WS02006247           JUNCTION     0.48     1.25     8.75     0  01:32        0.80
  WS02006248           JUNCTION     0.42     0.69     8.28     0  02:00        0.69
  WS02006249           JUNCTION     0.44     0.69     8.29     0  02:00        0.69
  WS02006239           JUNCTION     0.64     1.19     8.40     0  01:32        1.04
  WS02006251           JUNCTION     0.43     0.78     8.45     0  02:00        0.77
  WS02006252           JUNCTION     0.33     0.59     8.84     0  02:00        0.59
  WS02006253           JUNCTION     0.46     0.81     8.46     0  02:00        0.80
  WS02006256           JUNCTION     1.09     1.23     8.17     0  03:02        1.23
  WS02004138           JUNCTION     0.14     0.19     7.44     0  01:40        0.19
  WS02004407           JUNCTION     0.25     0.38     6.69     0  01:38        0.38
  WS02006228           JUNCTION     0.88     1.50     8.15     0  01:36        1.50
  WS02006229           JUNCTION     0.88     1.55     8.24     0  01:36        1.55
  WS02006280           JUNCTION     0.10     0.29     8.56     0  01:36        0.29
  WS02006284           JUNCTION     0.42     0.68     9.08     0  01:36        0.68
  WS02006287           JUNCTION     0.15     0.43     9.38     0  01:35        0.43
  WSF200               JUNCTION     0.26     0.42     5.65     0  01:41        0.42
  HS02004901           JUNCTION     0.17     0.40    10.23     0  01:33        0.40
  HS02004881           JUNCTION     0.02     0.06     9.09     0  01:36        0.06
  HS02004876           JUNCTION     0.06     0.18     9.21     0  01:36        0.18
  HS02004870           JUNCTION     0.03     0.11     9.39     0  01:36        0.11
  HS02004862           JUNCTION     0.04     0.12     9.50     0  01:37        0.12
  HS02004856           JUNCTION     0.09     0.16     9.59     0  01:37        0.16
  HS02004852           JUNCTION     0.02     0.09     9.60     0  01:37        0.09
  HS02004848           JUNCTION     0.02     0.08     9.68     0  01:37        0.08
  HS02004842           JUNCTION     0.34     0.41     9.68     0  01:37        0.41
  HS02004837           JUNCTION     0.04     0.10     9.68     0  01:37        0.10
  HS02004830           JUNCTION     0.05     0.13     9.60     0  01:36        0.13
  HS02004824           JUNCTION     0.04     0.17     9.57     0  01:35        0.17
  HS02004817           JUNCTION     0.48     0.74     9.59     0  01:35        0.74
  HS02004807           JUNCTION     0.17     0.41     9.58     0  01:36        0.40
  HS02004802           JUNCTION     0.21     0.44     9.56     0  01:36        0.44
  HS02004799           JUNCTION     0.18     0.51     9.72     0  01:34        0.51
  HS02004792           JUNCTION     0.07     0.24     9.76     0  01:33        0.24
  HS02004788           JUNCTION     0.05     0.17    10.07     0  01:34        0.17
  HS02004785           JUNCTION     0.08     0.27    10.17     0  01:33        0.27
  HS02004777           JUNCTION     0.19     0.41    10.21     0  01:33        0.41
  HS02004770           JUNCTION     0.16     0.39    10.22     0  01:33        0.39
  HS02004480           JUNCTION     0.13     0.42     9.66     0  01:34        0.42
  HS02004479           JUNCTION     0.17     0.46     9.66     0  01:34        0.46
  HS02004478           JUNCTION     0.10     0.32     9.54     0  01:35        0.32
  YS02001745           JUNCTION     0.83     1.04     8.56     0  03:01        1.04
  YS02001748           JUNCTION     1.24     2.27     9.35     0  01:32        1.46
  YS02001751           JUNCTION     1.42     2.15     9.03     0  01:32        1.63
  YS02001754           JUNCTION     1.67     2.08     8.68     0  01:32        1.88
  YS02001762           JUNCTION     1.87     2.07     8.47     0  03:01        2.07
  YS02001765           JUNCTION     1.82     2.02     8.47     0  03:15        2.01
  YS02001767           JUNCTION     1.79     1.97     8.46     0  02:25        1.97
  YS02001770           JUNCTION     1.78     1.95     8.44     0  02:25        1.95
  YS02001774           JUNCTION     1.84     2.02     8.44     0  01:31        1.99
  YS02001779           JUNCTION     1.58     1.68     8.37     0  01:31        1.68
  YS02001882           JUNCTION     0.89     1.67     8.39     0  01:37        1.63
  YS02001884           JUNCTION     0.98     1.76     8.38     0  01:37        1.74
  YS02001759           JUNCTION     1.91     2.11     8.47     0  03:01        2.11
  YS02001887           JUNCTION     1.06     1.82     8.36     0  01:37        1.81
  YS02001890           JUNCTION     1.08     1.81     8.32     0  01:37        1.81
  YS02001898           JUNCTION     0.85     1.58     8.31     0  01:37        1.56
  YS02001901           JUNCTION     0.96     1.69     8.30     0  01:37        1.67
  YS02001904           JUNCTION     0.94     1.65     8.28     0  01:37        1.63
  YS02001907           JUNCTION     1.27     1.96     8.25     0  01:37        1.96
  YS02001910           JUNCTION     1.07     1.89     8.39     0  01:37        1.79
  YS02001915           JUNCTION     0.87     1.84     8.56     0  01:37        1.62
  YS02001918           JUNCTION     0.59     1.81     8.88     0  01:37        1.32
  YS02001619           JUNCTION     1.37     1.61     8.54     0  01:31        1.50
  YS02001629           JUNCTION     1.72     1.85     8.40     0  01:31        1.85
  YS02001641           JUNCTION     1.81     1.95     8.38     0  01:33        1.94
  YS02001644           JUNCTION     1.81     1.92     8.35     0  01:32        1.92
  YS02001652           JUNCTION     1.68     2.16     8.76     0  01:39        1.87
  YS02001655           JUNCTION     1.44     2.20     9.05     0  01:32        1.67
  YS02001920           JUNCTION     0.69     1.68     8.68     0  01:39        1.40
  YS02001923           JUNCTION     0.50     1.49     8.75     0  01:39        1.18
  YS02001926           JUNCTION     0.48     1.25     8.70     0  01:39        1.18
  YS02001929           JUNCTION     0.32     0.90     8.59     0  01:39        0.87
  YS02001658           JUNCTION     1.17     2.30     9.44     0  01:32        1.47
  YS02001661           JUNCTION     0.93     2.46     9.86     0  01:33        1.27
  YS02001664           JUNCTION     0.43     0.69     8.61     0  01:33        0.68
  YS02001622           JUNCTION     1.39     1.62     8.52     0  01:31        1.51
  YS02001633           JUNCTION     1.81     1.97     8.42     0  01:33        1.96
  YS02001649           JUNCTION     1.87     2.05     8.44     0  01:33        2.05
  YS02001757           JUNCTION     2.00     2.21     8.47     0  01:32        2.21
  YS02001895           JUNCTION     0.84     1.57     8.32     0  01:37        1.56
  YS02001625           JUNCTION     1.67     1.78     8.38     0  01:31        1.78
  YS02163301           JUNCTION     1.75     1.90     8.41     0  01:33        1.89
  YS02163601           JUNCTION     1.86     2.02     8.41     0  01:33        2.01
  YS02164001           JUNCTION     1.79     1.94     8.40     0  01:33        1.94
  YS02001647           JUNCTION     1.65     1.83     8.44     0  01:32        1.79
  YSB1154              JUNCTION     0.31     0.61     9.67     0  01:34        0.61
  YSB6556              JUNCTION     0.20     0.50     9.67     0  01:34        0.50
  YSB1174              JUNCTION     0.26     0.56     9.67     0  01:34        0.56
  YSB1171              JUNCTION     0.46     0.76     9.67     0  01:34        0.76
  YS02006553           JUNCTION     1.27     2.15     8.44     0  01:39        1.97
  YS02006561           JUNCTION     0.56     1.75     8.41     0  01:39        1.09
  YS02006556           JUNCTION     1.23     2.36     8.67     0  01:39        1.93
  YS02006558           JUNCTION     1.27     2.48     8.75     0  01:39        1.98
  YS02001783           JUNCTION     0.84     2.28     8.42     0  01:39        1.48
  YS02001784           JUNCTION     0.83     2.29     8.36     0  01:39        1.42
  YS02001786           JUNCTION     0.74     2.23     8.26     0  01:39        1.27
  YS02001788           JUNCTION     0.65     2.28     8.26     0  01:39        1.13
  YS02001790           JUNCTION     0.78     1.96     7.60     0  01:39        1.29
  YS02001791           JUNCTION     0.76     1.89     7.36     0  01:39        1.28
  YS02001793           JUNCTION     1.06     1.93     6.76     0  01:39        1.80
  WS02004139           JUNCTION     0.59     0.76     5.67     0  01:43        0.76
  WSC                  OUTFALL      0.32     0.46     1.13     0  01:45        0.46
  3                    OUTFALL      0.13     0.23     6.23     0  03:02        0.23
  4                    OUTFALL      0.04     0.19     7.19     0  02:00        0.19
  5                    OUTFALL      0.00     0.00     5.00     0  00:00        0.00
  JK-storage           STORAGE      3.87     5.80     6.60     0  01:39        5.80
  CC-storage           STORAGE      1.22     1.46     8.46     0  02:28        1.46
  XR-storage           STORAGE      7.60     7.72     5.72     0  01:33        7.72
  
  
  *******************
  Node Inflow Summary
  *******************
  
  -------------------------------------------------------------------------------------------------
                                  Maximum  Maximum                  Lateral       Total        Flow
                                  Lateral    Total  Time of Max      Inflow      Inflow     Balance
                                   Inflow   Inflow   Occurrence      Volume      Volume       Error
  Node                 Type           LPS      LPS  days hr:min    10^6 ltr    10^6 ltr     Percent
  -------------------------------------------------------------------------------------------------
  WS02001211           JUNCTION      7.35   365.39     0  01:40       0.207        6.02       0.541
  WS02001212           JUNCTION      0.00   359.68     0  01:42           0        5.99       0.278
  WS02001213           JUNCTION      0.00   358.64     0  01:43           0        5.98       0.351
  WS02003069           JUNCTION      0.32  1237.84     0  01:44     0.00902        16.3       0.172
  WS02003072           JUNCTION      0.00  1237.74     0  01:44           0        16.3       0.212
  WS02003073           JUNCTION      1.82  1239.87     0  01:45      0.0514        16.3       0.238
  WS02003060           JUNCTION     16.53  1237.75     0  01:44       0.466        16.3       0.163
  WS02003066           JUNCTION      0.00   865.72     0  01:40           0        9.96       0.046
  WS02003059           JUNCTION      0.00   358.91     0  01:43           0        5.96       0.637
  WS02003067           JUNCTION      0.00   865.74     0  01:40           0        9.97       0.096
  WS02004401           JUNCTION      0.00   869.48     0  01:37           0        10.2       0.213
  WS02004402           JUNCTION      0.00   869.44     0  01:37           0        10.2       0.200
  WS02004403           JUNCTION      0.00   869.44     0  01:37           0        10.2       0.182
  WS02004404           JUNCTION      0.16   869.66     0  01:37     0.00457        10.1       0.137
  WS02004406           JUNCTION      0.00   869.77     0  01:37           0        10.1       0.333
  WS02004409           JUNCTION      0.00   869.52     0  01:38           0        10.1       0.169
  WS02004410           JUNCTION      0.00   866.43     0  01:39           0        10.1       0.190
  WS02004411           JUNCTION      0.00   865.81     0  01:39           0          10       0.194
  WS02004412           JUNCTION      0.00   865.62     0  01:39           0          10       0.209
  WS02004413           JUNCTION      0.00   865.70     0  01:40           0          10       0.307
  WS02004405           JUNCTION      0.04   869.73     0  01:37     0.00107        10.1       0.205
  WS02006109           JUNCTION      1.23   844.76     0  01:35      0.0347        10.2       0.192
  WS02006110           JUNCTION      0.00   844.75     0  01:35           0        10.2       0.195
  WS02006111           JUNCTION      0.00   836.54     0  01:37           0        10.1       0.041
  WS02006112           JUNCTION     34.22   869.70     0  01:37       0.151        10.3       0.280
  WS02006113           JUNCTION      0.00   844.79     0  01:35           0        10.1       0.104
  WS02006115           JUNCTION      0.00   869.59     0  01:37           0        10.2       0.202
  WS02006116           JUNCTION      0.00   869.53     0  01:37           0        10.2       0.192
  WS02006230           JUNCTION     10.28   397.42     0  05:42        0.29        6.12       0.218
  WS02006231           JUNCTION      0.00   388.14     0  05:42           0        5.83       0.186
  WS02006232           JUNCTION      0.00   388.14     0  05:42           0        5.82       0.278
  WS02006234           JUNCTION      0.00   389.61     0  07:11           0        5.82       0.157
  WS02006235           JUNCTION      0.00   389.47     0  07:11           0        5.98       0.153
  WS02006238           JUNCTION      0.00   333.38     0  05:20           0        4.11       0.183
  WS02006240           JUNCTION      0.00   334.06     0  05:20           0        4.07       0.280
  WS02006242           JUNCTION      0.00   336.30     0  04:11           0        4.07       0.373
  WS02006243           JUNCTION      0.00   342.41     0  04:11           0        4.05       0.003
  WS02006245           JUNCTION      0.00   346.49     0  04:11           0        4.05       0.304
  WS02006247           JUNCTION      0.00   350.69     0  04:11           0        4.06       0.175
  WS02006248           JUNCTION      0.00   354.70     0  04:10           0        4.06       0.061
  WS02006249           JUNCTION      0.00   518.08     0  02:00           0        5.09       0.252
  WS02006239           JUNCTION      0.00   334.07     0  05:20           0        4.09       0.227
  WS02006251           JUNCTION      0.08   518.98     0  02:00     0.00217        5.13       0.161
  WS02006252           JUNCTION      0.00   400.00     0  03:20           0        4.27       0.010
  WS02006253           JUNCTION      4.74   178.63     0  01:36      0.0174       0.858       0.409
  WS02006256           JUNCTION      0.00   600.00     0  02:50           0        7.58       0.043
  WS02004138           JUNCTION      0.00   379.97     0  01:40           0        5.84       0.054
  WS02004407           JUNCTION      0.00   869.95     0  01:37           0        10.1       0.076
  WS02006228           JUNCTION      0.00   843.57     0  01:35           0        10.2       0.146
  WS02006229           JUNCTION      0.00   847.81     0  01:34           0        10.2       0.140
  WS02006280           JUNCTION      0.00   821.14     0  01:36           0        4.12       0.003
  WS02006284           JUNCTION      0.10   821.08     0  01:36      0.0027        4.12       0.018
  WS02006287           JUNCTION      0.00   820.94     0  01:36           0        4.12       0.018
  WSF200               JUNCTION      0.00   865.43     0  01:40           0        9.95       0.046
  HS02004901           JUNCTION     41.69    41.69     0  01:31       0.183       0.183       0.971
  HS02004881           JUNCTION     17.57   174.51     0  01:36      0.0714       0.818       0.067
  HS02004876           JUNCTION     30.53   157.86     0  01:36       0.138       0.747       0.075
  HS02004870           JUNCTION     32.08   127.64     0  01:36       0.135       0.609       0.018
  HS02004862           JUNCTION     28.49    96.84     0  01:37       0.155       0.474       0.037
  HS02004856           JUNCTION     23.95    68.40     0  01:36       0.102        0.32       0.454
  HS02004852           JUNCTION      0.00    45.39     0  01:37           0       0.218       0.028
  HS02004848           JUNCTION     61.76    61.76     0  01:40       0.354       0.354       0.013
  HS02004842           JUNCTION      0.00    18.52     0  01:52           0       0.149       9.567
  HS02004837           JUNCTION     59.75    74.34     0  01:37       0.414        0.55       0.147
  HS02004830           JUNCTION      0.15    74.45     0  01:37     0.00423        0.54       0.230
  HS02004824           JUNCTION     72.88   147.20     0  01:40        0.43       0.969       0.056
  HS02004817           JUNCTION      0.60   150.23     0  01:40      0.0169       0.985       1.721
  HS02004807           JUNCTION     59.71   204.87     0  01:38       0.248        1.22       0.359
  HS02004802           JUNCTION      0.00   204.78     0  01:39           0        1.22       0.328
  HS02004799           JUNCTION     47.08   525.52     0  01:33       0.202         2.5       0.119
  HS02004792           JUNCTION    203.19   478.62     0  01:33       0.982         2.3       0.016
  HS02004788           JUNCTION     66.25   277.11     0  01:34       0.351        1.32       0.029
  HS02004785           JUNCTION      0.15   210.94     0  01:33     0.00423       0.971       0.053
  HS02004777           JUNCTION      0.03   211.17     0  01:32    0.000846       0.971       0.540
  HS02004770           JUNCTION    171.10   212.05     0  01:32       0.791       0.972       0.316
  HS02004480           JUNCTION      0.00   623.60     0  01:34           0        2.92       0.035
  HS02004479           JUNCTION      0.00    98.35     0  01:34           0       0.432       0.172
  HS02004478           JUNCTION      0.00   820.92     0  01:35           0        4.12       0.008
  YS02001745           JUNCTION    635.50   635.50     0  03:01        5.48        5.48       0.214
  YS02001748           JUNCTION      0.04   636.31     0  03:01     0.00127        5.47       0.414
  YS02001751           JUNCTION      0.01   636.35     0  03:01     0.00031        5.45       0.445
  YS02001754           JUNCTION      0.26   636.64     0  03:01     0.00733        5.44       0.446
  YS02001762           JUNCTION      0.00   393.51     0  01:41           0        2.95       0.716
  YS02001765           JUNCTION      0.00   393.47     0  01:41           0        2.94       0.826
  YS02001767           JUNCTION      0.54   393.44     0  01:41      0.0151        2.97       1.212
  YS02001770           JUNCTION    726.70  1063.08     0  03:01           6        7.55       0.414
  YS02001774           JUNCTION      0.00   851.17     0  02:56           0        5.91       0.422
  YS02001779           JUNCTION      0.01   851.17     0  02:56    0.000141        5.88       0.260
  YS02001882           JUNCTION      0.00    50.92     0  01:34           0      0.0148      19.433
  YS02001884           JUNCTION      0.00    63.78     0  01:32           0      0.0496      15.780
  YS02001759           JUNCTION    688.01   889.83     0  01:47        5.55        6.92       0.329
  YS02001887           JUNCTION    787.85   787.85     0  03:01        6.23        6.26       0.146
  YS02001890           JUNCTION      0.00   787.85     0  03:01           0        6.21       0.159
  YS02001898           JUNCTION      0.00   569.84     0  01:38           0        5.24       0.059
  YS02001901           JUNCTION      0.00   570.36     0  01:38           0        5.24       0.145
  YS02001904           JUNCTION      0.00   570.35     0  01:38           0        5.23       0.129
  YS02001907           JUNCTION      0.00  1384.51     0  03:01           0        13.2       0.190
  YS02001910           JUNCTION      0.00   868.05     0  03:01           0        7.96       0.160
  YS02001915           JUNCTION    536.93   868.03     0  03:01        4.53        8.02       0.083
  YS02001918           JUNCTION      0.00   355.86     0  01:39           0        3.52       0.049
  YS02001619           JUNCTION    541.58   541.58     0  03:01        4.58        4.58       0.267
  YS02001629           JUNCTION      0.00   369.06     0  01:31           0        1.87       1.523
  YS02001641           JUNCTION      0.00   452.86     0  01:32           0        5.95       0.350
  YS02001644           JUNCTION    611.54  1882.09     0  03:01         5.3        18.3       0.140
  YS02001652           JUNCTION      0.00   607.55     0  03:01           0        4.73       0.475
  YS02001655           JUNCTION      0.15   607.54     0  03:01     0.00434        4.76       0.534
  YS02001920           JUNCTION      2.87   355.85     0  01:39      0.0809         3.5       0.097
  YS02001923           JUNCTION      0.04   333.66     0  03:01     0.00106         3.4       0.042
  YS02001926           JUNCTION      0.05   330.60     0  03:01     0.00147        3.38       0.105
  YS02001929           JUNCTION    330.66   330.66     0  03:01        3.37        3.37       0.022
  YS02001658           JUNCTION      0.00   607.37     0  03:01           0        4.78       0.487
  YS02001661           JUNCTION      0.00   802.27     0  01:47           0        5.32       0.035
  YS02001664           JUNCTION    606.27   606.27     0  03:01        4.78        5.32       0.120
  YS02001622           JUNCTION      0.00   541.60     0  03:01           0        4.57       0.693
  YS02001633           JUNCTION    625.57   625.57     0  03:01        5.46        6.65       0.482
  YS02001649           JUNCTION      0.00  1364.21     0  03:01           0        10.1       0.366
  YS02001757           JUNCTION      0.00  2167.95     0  01:46           0        12.7       0.721
  YS02001895           JUNCTION      0.00   569.82     0  01:38           0        5.25       0.120
  YS02001625           JUNCTION      0.00   743.58     0  03:01           0        5.19       0.777
  YS02163301           JUNCTION      0.00   307.64     0  01:30           0        1.87       1.287
  YS02163601           JUNCTION      0.11   452.45     0  01:32      0.0031        5.95       0.503
  YS02164001           JUNCTION      0.00   452.62     0  01:32           0        5.94       0.337
  YS02001647           JUNCTION      0.00   846.70     0  03:17           0        8.06       0.351
  YSB1154              JUNCTION     54.28    54.28     0  01:34       0.243       0.243       0.595
  YSB6556              JUNCTION      0.00    54.37     0  01:35           0       0.244       0.519
  YSB1174              JUNCTION     46.17    46.17     0  01:30        0.18       0.181       0.711
  YSB1171              JUNCTION      0.00    98.46     0  01:34           0       0.431       1.496
  YS02006553           JUNCTION      0.00   699.73     0  03:50           0        7.67       0.212
  YS02006561           JUNCTION      0.00  1145.08     0  01:39           0        13.4       0.006
  YS02006556           JUNCTION      0.00   699.75     0  03:50           0        7.67       0.152
  YS02006558           JUNCTION    724.98  1145.33     0  01:39         5.8        13.4       0.041
  YS02001783           JUNCTION      0.00  1145.16     0  01:39           0        13.4       0.021
  YS02001784           JUNCTION      1.06  1146.33     0  01:39      0.0299        13.4       0.033
  YS02001786           JUNCTION      0.06  1146.19     0  01:39     0.00159        13.4       0.031
  YS02001788           JUNCTION      0.07  1147.65     0  01:39       0.002        13.4       0.016
  YS02001790           JUNCTION      0.15  1149.56     0  01:39     0.00437        13.4       0.022
  YS02001791           JUNCTION      0.00  1215.22     0  01:38           0        13.4       0.007
  YS02001793           JUNCTION      0.00  1163.01     0  01:38           0        13.4      -0.030
  WS02004139           JUNCTION      0.32   379.24     0  01:40     0.00905        5.85       0.530
  WSC                  OUTFALL       0.00  1241.23     0  01:45           0        16.3       0.000
  3                    OUTFALL       0.00   578.06     0  03:02           0        5.65       0.000
  4                    OUTFALL       0.00   311.58     0  02:00           0        1.02       0.000
  5                    OUTFALL       0.00     0.00     0  00:00           0           0       0.000 ltr
  JK-storage           STORAGE       0.00  1074.66     0  01:39           0        13.6      -1.834
  CC-storage           STORAGE       0.00  2168.10     0  01:46           0        8.14       0.798
  XR-storage           STORAGE    1408.02  1408.02     0  03:01        16.7        17.3      -0.001
  
  
  **********************
  Node Surcharge Summary
  **********************
  
  Surcharging occurs when water rises above the top of the highest conduit.
  ---------------------------------------------------------------------
                                               Max. Height   Min. Depth
                                   Hours       Above Crown    Below Rim
  Node                 Type      Surcharged         Meters       Meters
  ---------------------------------------------------------------------
  WS02004401           JUNCTION        1.23          0.172        1.488
  WS02004402           JUNCTION        1.40          0.171        1.569
  WS02004403           JUNCTION        1.41          0.168        1.862
  WS02004404           JUNCTION        1.76          0.212        2.568
  WS02004406           JUNCTION        1.70          0.148        2.302
  WS02004405           JUNCTION        1.74          0.179        2.621
  WS02006109           JUNCTION        2.93          0.544        1.276
  WS02006110           JUNCTION        1.94          0.287        1.563
  WS02006112           JUNCTION        2.08          0.469        1.211
  WS02006115           JUNCTION        0.70          0.127        2.123
  WS02006116           JUNCTION        0.79          0.129        2.161
  WS02006230           JUNCTION        1.70          0.423        1.147
  WS02006231           JUNCTION        1.82          0.423        1.107
  WS02006232           JUNCTION        3.09          0.532        0.948
  WS02006234           JUNCTION        2.17          0.439        0.801
  WS02006235           JUNCTION        2.48          0.450        0.840
  WS02006238           JUNCTION        2.75          0.469        0.961
  WS02006240           JUNCTION        2.01          0.528        0.862
  WS02006242           JUNCTION        2.25          0.820        0.000
  WS02006243           JUNCTION        1.18          0.479        0.291
  WS02006245           JUNCTION        0.57          0.357        0.493
  WS02006247           JUNCTION        0.49          0.540        0.220
  WS02006239           JUNCTION        2.10          0.447        0.843
  WS02006252           JUNCTION        1.67          0.193        0.907
  WS02006228           JUNCTION        2.82          0.671        1.529
  HS02004817           JUNCTION        0.32          0.037        1.703
  YS02001745           JUNCTION        0.54          0.039        1.311
  YS02001748           JUNCTION        6.28          1.190        0.000
  YS02001751           JUNCTION        6.30          1.146        0.054
  YS02001754           JUNCTION        6.31          1.026        0.124
  YS02001762           JUNCTION        6.34          1.069        0.081
  YS02001765           JUNCTION        6.34          1.018        0.082
  YS02001767           JUNCTION        6.33          0.972        0.058
  YS02001770           JUNCTION        6.33          0.920        0.000
  YS02001774           JUNCTION        6.34          1.018        0.032
  YS02001779           JUNCTION        6.31          0.680        0.000
  YS02001882           JUNCTION        2.56          0.672        0.158
  YS02001884           JUNCTION        2.59          0.701        0.169
  YS02001759           JUNCTION        6.35          1.111        0.099
  YS02001887           JUNCTION        2.67          0.772        0.178
  YS02001890           JUNCTION        2.70          0.760        0.000
  YS02001898           JUNCTION        2.53          0.548        0.192
  YS02001901           JUNCTION        2.64          0.687        0.183
  YS02001904           JUNCTION        2.62          0.645        0.205
  YS02001907           JUNCTION        3.05          0.950        0.000
  YS02001910           JUNCTION        2.74          0.887        0.213
  YS02001915           JUNCTION        2.56          0.840        0.160
  YS02001918           JUNCTION        2.33          0.810        0.000
  YS02001619           JUNCTION        6.31          0.610        0.000
  YS02001629           JUNCTION        6.31          0.470        0.000
  YS02001641           JUNCTION        6.34          0.946        0.154
  YS02001644           JUNCTION        6.34          0.920        0.000
  YS02001652           JUNCTION        6.31          1.130        0.000
  YS02001655           JUNCTION        6.30          1.200        0.000
  YS02001920           JUNCTION        2.37          0.677        0.463
  YS02001923           JUNCTION        0.01          0.275        0.545
  YS02001926           JUNCTION        0.01          0.250        0.650
  YS02001658           JUNCTION        6.29          1.300        0.000
  YS02001661           JUNCTION        1.20          1.390        0.000
  YS02001622           JUNCTION        6.31          0.620        0.000
  YS02001633           JUNCTION        6.33          0.949        0.111
  YS02001649           JUNCTION        6.34          1.050        0.000
  YS02001757           JUNCTION        6.36          1.210        0.000
  YS02001895           JUNCTION        2.54          0.573        0.177
  YS02001625           JUNCTION        6.32          0.780        0.000
  YS02163301           JUNCTION        6.33          0.898        0.132
  YS02163601           JUNCTION        6.34          1.015        0.065
  YS02164001           JUNCTION        6.33          0.944        0.156
  YS02001647           JUNCTION        6.32          0.827        0.073
  YS02006553           JUNCTION        3.13          1.155        0.035
  YS02006561           JUNCTION        2.42          0.948        0.202
  YS02006556           JUNCTION        2.90          1.319        0.031
  YS02006558           JUNCTION        2.87          1.385        0.015
  YS02001783           JUNCTION        2.93          1.477        0.123
  YS02001784           JUNCTION        2.94          1.490        0.000
  YS02001786           JUNCTION        2.88          1.430        0.000
  YS02001788           JUNCTION        2.83          1.480        0.000
  YS02001790           JUNCTION        3.39          1.157        0.000
  YS02001791           JUNCTION        3.50          1.094        0.826
  YS02001793           JUNCTION        3.66          0.925        1.675
  
  
  *********************
  Node Flooding Summary
  *********************
  
  Flooding refers to all water that overflows a node, whether it ponds or not.
  --------------------------------------------------------------------------
                                                             Total   Maximum
                                 Maximum   Time of Max       Flood    Ponded
                        Hours       Rate    Occurrence      Volume     Depth
  Node                 Flooded       LPS   days hr:min    10^6 ltr    Meters
  --------------------------------------------------------------------------
  WS02006242              0.01     83.17      0  01:30       0.000     0.000
  YS02001748              0.01    174.94      0  01:32       0.000     0.000
  YS02001770              0.74    211.89      0  03:01       0.206     0.000
  YS02001779              4.39    851.17      0  02:56       5.866     0.000
  YS02001890              1.65    271.44      0  03:01       0.959     0.000
  YS02001907              2.18   1136.82      0  03:01       5.515     0.000
  YS02001619              0.01     89.00      0  01:31       0.000     0.000
  YS02001629              0.01    364.23      0  01:31       0.004     0.000
  YS02001644              5.74   1882.06      0  03:01      17.318     0.000
  YS02001652              0.01     12.80      0  01:39       0.000     0.000
  YS02001655              0.01     21.73      0  01:32       0.000     0.000
  YS02001658              0.01    160.49      0  01:32       0.000     0.000
  YS02001661              0.01    138.27      0  01:33       0.000     0.000
  YS02001622              0.01    111.70      0  01:31       0.000     0.000
  YS02001649              1.01    517.51      0  03:01       1.037     0.000
  YS02001757              0.01     12.37      0  01:32       0.000     0.000
  YS02001625              2.89    743.56      0  03:01       3.934     0.000
  YS02001784              0.01      7.78      0  01:39       0.000     0.000
  YS02001786              0.01     16.01      0  01:39       0.000     0.000
  YS02001788              0.01    202.09      0  01:39       0.000     0.000
  YS02001790              0.01    221.76      0  01:39       0.000     0.000
  JK-storage              3.29    970.78      0  02:20       6.346     0.000
  XR-storage              6.27   1208.48      0  03:01      10.553     0.000
  
  
  **********************
  Storage Volume Summary
  **********************
  
  --------------------------------------------------------------------------------------------------
                         Average     Avg  Evap Exfil       Maximum     Max    Time of Max    Maximum
                          Volume    Pcnt  Pcnt  Pcnt        Volume    Pcnt     Occurrence    Outflow
  Storage Unit           1000 m3    Full  Loss  Loss       1000 m3    Full    days hr:min        LPS
  --------------------------------------------------------------------------------------------------
  JK-storage               0.195      67     0     0         0.291     100       0  01:39     600.00
  CC-storage               3.399      22     0     0         4.075      26       0  02:28     400.00
  XR-storage               0.912      98     0     0         0.926     100       0  01:33     379.97
  
  
  ***********************
  Outfall Loading Summary
  ***********************
  
  -----------------------------------------------------------
                         Flow       Avg       Max       Total
                         Freq      Flow      Flow      Volume
  Outfall Node           Pcnt       LPS       LPS    10^6 ltr
  -----------------------------------------------------------
  WSC                   99.99    659.85   1241.23      16.263
  3                     90.33    285.99    578.06       5.652
  4                     46.87    100.72    311.58       1.022
  5                      0.00      0.00      0.00       0.000
  -----------------------------------------------------------
  System                59.30   1046.56   1775.32      22.937
  
  
  ********************
  Link Flow Summary
  ********************
  
  -----------------------------------------------------------------------------
                                 Maximum  Time of Max   Maximum    Max/    Max/
                                  |Flow|   Occurrence   |Veloc|    Full    Full
  Link                 Type          LPS  days hr:min     m/sec    Flow   Depth
  -----------------------------------------------------------------------------
  WS02003066WSF200     CONDUIT    865.43     0  01:40      3.00    0.15    0.31
  WS02006287WS02006284 CONDUIT    820.98     0  01:36      2.53    0.38    0.43
  WS02006284WS02006280 CONDUIT    821.14     0  01:36      2.76    0.34    0.40
  WS02006280WS02006229 CONDUIT    821.06     0  01:36      4.47    0.18    0.33
  WS02006229WS02006228 CONDUIT    843.57     0  01:35      1.68    2.79    1.00
  WS02006256WS02006235 CONDUIT    166.25     0  00:01      2.58    1.76    1.00
  WS02006253WS02006251 CONDUIT    213.84     0  01:34      0.77    0.64    1.00
  WS02006252WS02006251 CONDUIT    400.30     0  05:20      3.19    1.47    1.00
  WS02006251WS02006249 CONDUIT    518.08     0  02:00      1.35    1.49    1.00
  WS02006249WS02006248 CONDUIT    354.70     0  04:10      1.16    1.94    0.98
  WS02006248WS02006247 CONDUIT    350.69     0  04:11      1.13    0.76    1.00
  WS02006247WS02006245 CONDUIT    346.49     0  04:11      1.10    2.75    1.00
  WS02006245WS02006243 CONDUIT    342.41     0  04:11      1.12    1.01    1.00
  WS02006243WS02006242 CONDUIT    336.30     0  04:11      1.01    0.72    1.00
  WS02006242WS02006240 CONDUIT    334.06     0  05:20      0.96    1.33    1.00
  WS02006240WS02006239 CONDUIT    334.07     0  05:20      0.99    1.05    1.00
  WS02006239WS02006238 CONDUIT    333.38     0  05:20      0.90    1.07    1.00
  WS02006238WS02006235 CONDUIT    331.47     0  05:20      1.25    0.74    1.00
  WS02006235WS02006234 CONDUIT    389.61     0  07:11      1.03    4.11    1.00
  WS02006234WS02006232 CONDUIT    388.14     0  05:42      1.13    0.79    1.00
  WS02006232WS02006231 CONDUIT    388.14     0  05:42      1.06    0.81    1.00
  WS02006231WS02006230 CONDUIT    387.14     0  05:42      1.34    5.87    1.00
  WS02006230WS02006229 CONDUIT    397.17     0  05:43      1.03    8.84    1.00
  WS02006228WS02006109 CONDUIT    843.53     0  01:35      1.68    3.69    1.00
  WS02006116WS02004401 CONDUIT    869.48     0  01:37      1.11    1.20    1.00
  WS02006115WS02006116 CONDUIT    869.53     0  01:37      1.11    1.12    1.00
  WS02006113WS02006111 CONDUIT    836.54     0  01:37      2.71    1.00    0.90
  WS02006112WS02006115 CONDUIT    869.59     0  01:37      1.11    0.51    1.00
  WS02006111WS02006112 CONDUIT    838.30     0  01:37      1.85    0.40    0.95
  WS02006110WS02006113 CONDUIT    844.79     0  01:35      1.79    0.77    0.94
  WS02006109WS02006110 CONDUIT    844.75     0  01:35      1.68    1.62    1.00
  WS02004411WS02004412 CONDUIT    865.62     0  01:39      1.19    1.23    0.87
  WS02004401WS02004402 CONDUIT    869.44     0  01:37      1.11    1.04    1.00
  WS02004413WS02003067 CONDUIT    865.74     0  01:40      1.46    0.37    0.71
  WS02004412WS02004413 CONDUIT    865.70     0  01:40      1.14    0.58    0.93
  WS02004410WS02004411 CONDUIT    865.81     0  01:39      1.18    1.18    0.89
  WS02004409WS02004410 CONDUIT    866.43     0  01:39      1.20    1.12    0.90
  WS02004407WS02004409 CONDUIT    869.52     0  01:38      1.80    0.31    0.64
  WS02004406WS02004407 CONDUIT    869.95     0  01:37      1.50    0.39    0.69
  WS02004405WS02004406 CONDUIT    869.77     0  01:37      1.11    1.72    1.00
  WS02004404WS02004405 CONDUIT    869.69     0  01:37      1.11    8.52    1.00
  WS02004403WS02004404 CONDUIT    869.50     0  01:37      1.11    0.63    1.00
  WS02004402WS02004403 CONDUIT    869.44     0  01:37      1.11    1.25    1.00
  WS02004139WS02001211 CONDUIT    358.04     0  01:40      0.53    0.45    0.61
  WS02004138WS02004139 CONDUIT    378.92     0  01:40      2.39    0.08    0.45
  WS02003067WS02003066 CONDUIT    865.72     0  01:40      1.58    0.28    0.49
  WS02001213WS02003059 CONDUIT    358.91     0  01:43      0.57    0.59    0.84
  WS02001212WS02001213 CONDUIT    358.64     0  01:43      1.17    0.55    0.53
  WS02001211WS02001212 CONDUIT    359.68     0  01:42      0.66    0.27    0.68
  WS02003072WS02003073 CONDUIT   1238.05     0  01:45      1.91    2.67    0.56
  WS02003069WS02003072 CONDUIT   1237.74     0  01:44      1.77    0.60    0.59
  WS02003060WS02003069 CONDUIT   1237.52     0  01:44      1.99    0.48    0.54
  WS02003059WS02003060 CONDUIT    359.71     0  01:44      0.78    0.23    0.74
  HS02004901HS02004770 CONDUIT     40.98     0  01:33      0.10    0.15    0.57
  HS02004876HS02004881 CONDUIT    157.88     0  01:36      1.33    1.68    0.17
  HS02004870HS02004876 CONDUIT    127.61     0  01:36      0.90    0.08    0.20
  HS02004842HS02004848 CONDUIT     18.52     0  01:52      0.08    0.01    0.35
  HS02004837HS02004842 CONDUIT     18.98     0  01:52      0.41    0.01    0.36
  HS02004830HS02004837 CONDUIT     74.30     0  01:37      0.68    0.07    0.16
  HS02004824HS02004830 CONDUIT     75.03     0  01:38      0.62    0.10    0.21
  HS02004817HS02004824 CONDUIT    149.63     0  01:40      0.35    0.07    0.62
  HS02004770HS02004777 CONDUIT    211.14     0  01:32      0.52    0.39    0.58
  HS02004799HS02004480 CONDUIT    525.37     0  01:34      1.14    0.66    0.66
  HS02004792HS02004799 CONDUIT    478.53     0  01:33      1.27    0.29    0.54
  HS02004788HS02004792 CONDUIT    277.00     0  01:34      1.34    0.18    0.30
  HS02004785HS02004788 CONDUIT    210.88     0  01:34      0.96    1.59    0.31
  HS02004777HS02004785 CONDUIT    210.79     0  01:33      0.62    0.26    0.49
  HS02004480HS02004478 CONDUIT    623.55     0  01:34      1.66    2.63    0.54
  HS02004479HS02004480 CONDUIT     98.64     0  01:35      0.34    0.10    0.63
  HS02004862HS02004870 CONDUIT     96.84     0  01:37      0.86    0.10    0.16
  HS02004848HS02004852 CONDUIT     45.39     0  01:37      0.56    0.05    0.12
  HS02004856HS02004862 CONDUIT     68.36     0  01:37      0.64    0.07    0.15
  HS02004852HS02004856 CONDUIT     45.48     0  01:38      0.37    0.05    0.18
  HS02004802HS02004478 CONDUIT    205.89     0  01:39      0.56    0.18    0.54
  HS02004478WS02006287 CONDUIT    820.94     0  01:36      2.26    0.23    0.40
  HS02004817HS02004807 CONDUIT    150.66     0  01:40      0.27    0.09    0.79
  HS02004807HS02004802 CONDUIT    204.78     0  01:39      0.50    0.39    0.59
  YS02001759YS02001757 CONDUIT    889.48     0  01:46      1.13    0.63    1.00
  YS02001762YS02001759 CONDUIT    393.48     0  01:41      0.50    0.45    1.00
  YS02001765YS02001762 CONDUIT    393.51     0  01:41      0.50    0.37    1.00
  YS02001770YS02001767 CONDUIT    392.91     0  01:41      0.50    1.56    1.00
  YS02001774YS02001770 CONDUIT    851.17     0  02:56      1.08    0.54    1.00
  YS02001779YS02001774 CONDUIT    851.17     0  02:56      1.08    0.43    1.00
  YS02001649YS02001757 CONDUIT    909.84     0  01:45      1.16    0.55    1.00
  YS02001767YS02001765 CONDUIT    393.47     0  01:41      0.50    0.49    1.00
  YS02006561YS02001783 CONDUIT   1145.16     0  01:39      2.28    0.59    1.00
  YS02001783YS02001784 CONDUIT   1145.27     0  01:39      2.28    1.58    1.00
  YS02001784YS02001785 CONDUIT   1146.14     0  01:39      2.28    2.67    1.00
  YS02001788YS02001790 CONDUIT   1149.40     0  01:39      2.68    0.85    1.00
  YS02001790YS02001791 CONDUIT   1215.22     0  01:38      3.37    1.32    1.00
  YS02001791YS02001793 CONDUIT   1163.01     0  01:38      6.43    0.50    1.00
  YS02001910YS02001907 CONDUIT    868.12     0  03:01      1.11    0.49    1.00
  YS02001786YS02001788 CONDUIT   1147.58     0  01:39      2.45    2.21    1.00
  YS02001915YS02001910 CONDUIT    868.05     0  03:01      1.11    0.43    1.00
  YS02001918YS02001915 CONDUIT    355.94     0  01:39      0.55    0.20    1.00
  YS02001923YS02001920 CONDUIT    352.98     0  01:39      0.88    0.16    1.00
  YS02001926YS02001923 CONDUIT    333.63     0  03:01      0.96    0.48    1.00
  YS02001929YS02001926 CONDUIT    330.54     0  03:01      1.03    0.16    0.95
  YS02001920YS02001918 CONDUIT    355.86     0  01:39      0.84    0.34    1.00
  YS02001629YS02163301 CONDUIT    299.02     0  01:30      0.38    0.37    1.00
  YS02001619YS02001622 CONDUIT    541.60     0  03:01      0.90    0.80    1.00
  YS02001622YS02001625 CONDUIT    541.66     0  03:01      0.69    0.29    1.00
  YS02001625YS02001629 CONDUIT    308.51     0  01:30      0.45    0.15    1.00
  YS02163301YS02001633 CONDUIT    307.64     0  01:30      0.39    0.29    1.00
  YS02163601YS02164001 CONDUIT    452.62     0  01:32      0.58    0.40    1.00
  YS02164001YS02001641 CONDUIT    452.86     0  01:32      0.58    0.62    1.00
  YS02001641YS02001644 CONDUIT    452.57     0  01:32      0.58    1.46    1.00
  YS02001647YS02001649 CONDUIT    846.70     0  03:17      1.08    0.45    1.00
  YS02006553YS02006556 CONDUIT    699.75     0  03:50      0.89    0.60    1.00
  YS02006556YS02006558 CONDUIT    699.81     0  03:50      0.89    0.55    1.00
  YSB6556YSB1171       CONDUIT     54.78     0  01:35      0.16    0.06    0.86
  YS02001907YS02006553 CONDUIT    699.73     0  03:50      0.78    0.82    1.00
  YS02006558YS02006561 CONDUIT   1145.08     0  01:39      4.05    2.53    1.00
  YS02001633YS02163601 CONDUIT    452.34     0  01:32      0.58    0.47    1.00
  YS02001644YS02001647 CONDUIT    846.70     0  03:17      1.08    0.50    1.00
  YS02001745YS02001748 CONDUIT    636.26     0  03:01      1.90    0.24    1.00
  YS02001748YS02001751 CONDUIT    636.34     0  03:01      1.44    0.32    1.00
  YS02001751YS02001754 CONDUIT    636.38     0  03:01      1.17    0.31    1.00
  YS02001754YS02001757 CONDUIT    636.68     0  03:01      0.81    0.26    1.00
  YS02001882YS02001884 CONDUIT     50.92     0  01:34      0.18    0.06    1.00
  YS02001884YS02001887 CONDUIT     63.78     0  01:32      0.14    0.08    1.00
  YS02001890YS02001895 CONDUIT    569.82     0  01:38      0.73    0.27    1.00
  YS02001895YS02001898 CONDUIT    569.84     0  01:38      0.73    0.99    1.00
  YS02001898YS02001901 CONDUIT    570.36     0  01:38      0.73    0.37    1.00
  YS02001901YS02001904 CONDUIT    570.35     0  01:38      0.73    0.88    1.00
  YS02001904YS02001907 CONDUIT    571.00     0  01:38      0.73    0.20    1.00
  YS02001887YS02001890 CONDUIT    787.85     0  03:01      1.00    1.35    1.00
  YS02001652YS02001649 CONDUIT    607.55     0  03:01      0.77    0.30    1.00
  YS02001655YS02001652 CONDUIT    607.55     0  03:01      1.26    0.30    1.00
  YS02001658YS02001655 CONDUIT    607.38     0  03:01      1.67    0.26    1.00
  YS02001661YS02001658 CONDUIT    607.37     0  03:01      2.02    0.24    1.00
  YS02001664YS02001661 CONDUIT    802.27     0  01:47      1.90    0.25    0.84
  YSB1154YSB6556       CONDUIT     54.37     0  01:35      0.17    0.10    0.79
  YSB1174YSB1171       CONDUIT     45.32     0  01:31      0.13    0.07    0.90
  YSB1171HS02004479    CONDUIT     98.35     0  01:34      0.54    0.07    0.73
  HS02004881HS02006253 CONDUIT    174.50     0  01:36      2.52    0.03    0.37
  YS02001793JiankangQianchi CONDUIT   1074.66     0  01:39     13.01    0.09    1.00
  YS02001757CaochengTiaoxuchi CONDUIT   2168.10     0  01:46      3.81    0.95    1.00
  WSF200WS02003060     CONDUIT    866.26     0  01:41      2.04    0.19    0.42
  1                    CONDUIT   1241.23     0  01:45      3.52    0.43    0.46
  2                    CONDUIT    311.58     0  02:00      6.47    0.75    0.64
  3                    CONDUIT    578.06     0  03:02     10.18    0.92    0.76
  4                    CONDUIT      0.00     0  00:00      0.00    0.00    0.00
  CC-Pump-1            PUMP       200.00     0  03:00              1.00
  CC-Pump-2            PUMP       200.00     0  02:00              1.00
  JK-Pump-1            PUMP       300.00     0  02:30              1.00
  JK-Pump-2            PUMP       300.00     0  00:00              1.00
  XR-Pump-1            PUMP        95.00     0  01:10              1.00
  XR-Pump-2            PUMP        95.00     0  00:00              1.00
  XR-Pump-3            PUMP        95.00     0  00:20              1.00
  XR-Pump-4            PUMP        95.00     0  01:40              1.00
  
  
  ***************************
  Flow Classification Summary
  ***************************
  
  -------------------------------------------------------------------------------------
                      Adjusted    ---------- Fraction of Time in Flow Class ---------- 
                       /Actual         Up    Down  Sub   Sup   Up    Down  Norm  Inlet 
  Conduit               Length    Dry  Dry   Dry   Crit  Crit  Crit  Crit  Ltd   Ctrl  
  -------------------------------------------------------------------------------------
  WS02003066WSF200        1.00   0.06  0.00  0.00  0.00  0.94  0.00  0.00  0.52  0.00
  WS02006287WS02006284    1.00   0.03  0.01  0.00  0.52  0.44  0.00  0.00  0.61  0.00
  WS02006284WS02006280    1.00   0.04  0.00  0.00  0.00  0.00  0.00  0.96  0.00  0.00
  WS02006280WS02006229    1.00   0.04  0.00  0.00  0.00  0.04  0.00  0.92  0.01  0.00
  WS02006229WS02006228    1.00   0.00  0.00  0.00  0.99  0.00  0.00  0.01  0.00  0.00
  WS02006256WS02006235    1.00   0.00  0.00  0.00  1.00  0.00  0.00  0.00  0.00  0.00
  WS02006253WS02006251    1.00   0.03  0.01  0.00  0.96  0.00  0.00  0.00  0.00  0.00
  WS02006252WS02006251    1.00   0.05  0.00  0.00  0.00  0.00  0.95  0.00  0.00  0.00
  WS02006251WS02006249    1.00   0.00  0.00  0.00  1.00  0.00  0.00  0.00  0.22  0.00
  WS02006249WS02006248    1.00   0.00  0.02  0.00  0.89  0.00  0.10  0.00  0.00  0.00
  WS02006248WS02006247    1.00   0.02  0.00  0.00  0.98  0.00  0.00  0.00  0.10  0.00
  WS02006247WS02006245    1.00   0.02  0.00  0.00  0.98  0.00  0.00  0.00  0.00  0.00
  WS02006245WS02006243    1.00   0.01  0.00  0.00  0.96  0.00  0.00  0.02  0.02  0.00
  WS02006243WS02006242    1.00   0.01  0.00  0.00  0.99  0.00  0.00  0.00  0.15  0.00
  WS02006242WS02006240    1.00   0.00  0.00  0.00  0.99  0.00  0.00  0.00  0.00  0.00
  WS02006240WS02006239    1.00   0.00  0.00  0.00  0.98  0.00  0.00  0.02  0.01  0.00
  WS02006239WS02006238    1.00   0.00  0.00  0.00  1.00  0.00  0.00  0.00  0.00  0.00
  WS02006238WS02006235    1.00   0.00  0.00  0.00  1.00  0.00  0.00  0.00  0.00  0.00
  WS02006235WS02006234    1.00   0.00  0.00  0.00  0.98  0.00  0.02  0.00  0.00  0.00
  WS02006234WS02006232    1.00   0.00  0.00  0.00  1.00  0.00  0.00  0.00  0.00  0.00
  WS02006232WS02006231    1.00   0.00  0.00  0.00  0.99  0.00  0.00  0.00  0.00  0.00
  WS02006231WS02006230    1.00   0.00  0.00  0.00  0.67  0.00  0.33  0.00  0.00  0.00
  WS02006230WS02006229    1.00   0.00  0.00  0.00  0.99  0.00  0.00  0.01  0.01  0.00
  WS02006228WS02006109    1.00   0.00  0.00  0.00  1.00  0.00  0.00  0.00  0.00  0.00
  WS02006116WS02004401    1.00   0.02  0.00  0.00  0.98  0.00  0.00  0.00  0.00  0.00
  WS02006115WS02006116    1.00   0.02  0.00  0.00  0.97  0.00  0.00  0.01  0.00  0.00
  WS02006113WS02006111    1.00   0.02  0.00  0.00  0.14  0.84  0.00  0.00  0.11  0.00
  WS02006112WS02006115    1.00   0.02  0.00  0.00  0.98  0.00  0.00  0.00  0.00  0.00
  WS02006111WS02006112    1.00   0.02  0.00  0.00  0.98  0.00  0.00  0.00  0.76  0.00
  WS02006110WS02006113    1.00   0.01  0.01  0.00  0.98  0.00  0.00  0.00  0.00  0.00
  WS02006109WS02006110    1.00   0.00  0.01  0.00  0.98  0.00  0.01  0.00  0.00  0.00
  WS02004411WS02004412    1.00   0.03  0.00  0.00  0.97  0.00  0.00  0.00  0.00  0.00
  WS02004401WS02004402    1.00   0.02  0.00  0.00  0.98  0.00  0.00  0.00  0.00  0.00
  WS02004413WS02003067    1.00   0.04  0.01  0.00  0.00  0.00  0.95  0.00  0.00  0.00
  WS02004412WS02004413    1.00   0.03  0.00  0.00  0.97  0.00  0.00  0.00  0.03  0.00
  WS02004410WS02004411    1.00   0.03  0.00  0.00  0.97  0.00  0.00  0.00  0.03  0.00
  WS02004409WS02004410    1.00   0.03  0.00  0.00  0.97  0.00  0.00  0.00  0.00  0.00
  WS02004407WS02004409    1.00   0.03  0.00  0.00  0.96  0.01  0.00  0.00  0.88  0.00
  WS02004406WS02004407    1.00   0.00  0.03  0.00  0.97  0.00  0.00  0.00  0.00  0.00
  WS02004405WS02004406    1.00   0.00  0.00  0.00  1.00  0.00  0.00  0.00  0.01  0.00
  WS02004404WS02004405    1.00   0.00  0.00  0.00  1.00  0.00  0.00  0.00  0.00  0.00
  WS02004403WS02004404    1.00   0.00  0.02  0.00  0.98  0.00  0.00  0.00  0.01  0.00
  WS02004402WS02004403    1.00   0.02  0.00  0.00  0.98  0.00  0.00  0.00  0.00  0.00
  WS02004139WS02001211    1.00   0.00  0.00  0.00  0.99  0.00  0.01  0.00  0.00  0.00
  WS02004138WS02004139    1.00   0.00  0.00  0.00  0.99  0.01  0.00  0.00  1.00  0.00
  WS02003067WS02003066    1.00   0.05  0.01  0.00  0.94  0.00  0.00  0.00  0.00  0.00
  WS02001213WS02003059    1.00   0.00  0.01  0.00  0.99  0.00  0.00  0.00  0.00  0.00
  WS02001212WS02001213    1.00   0.01  0.00  0.00  0.84  0.00  0.15  0.00  0.00  0.00
  WS02001211WS02001212    1.00   0.00  0.01  0.00  0.99  0.00  0.00  0.00  0.00  0.00
  WS02003072WS02003073    1.00   0.00  0.00  0.00  0.00  0.00  0.00  1.00  0.00  0.00
  WS02003069WS02003072    1.00   0.00  0.00  0.00  0.99  0.01  0.00  0.00  0.22  0.00
  WS02003060WS02003069    1.00   0.00  0.00  0.00  0.99  0.01  0.00  0.00  0.16  0.00
  WS02003059WS02003060    1.00   0.00  0.00  0.00  1.00  0.00  0.00  0.00  0.02  0.00
  HS02004901HS02004770    1.00   0.04  0.00  0.00  0.96  0.00  0.00  0.00  0.00  0.00
  HS02004876HS02004881    1.00   0.02  0.00  0.00  0.69  0.29  0.00  0.00  0.00  0.00
  HS02004870HS02004876    1.00   0.01  0.00  0.00  0.99  0.00  0.00  0.00  0.95  0.00
  HS02004842HS02004848    1.00   0.00  0.04  0.00  0.96  0.00  0.00  0.00  0.54  0.00
  HS02004837HS02004842    1.00   0.00  0.00  0.00  0.99  0.01  0.00  0.00  0.11  0.00
  HS02004830HS02004837    1.00   0.00  0.00  0.00  1.00  0.00  0.00  0.00  0.99  0.00
  HS02004824HS02004830    1.00   0.00  0.00  0.00  1.00  0.00  0.00  0.00  0.03  0.00
  HS02004817HS02004824    1.00   0.00  0.00  0.00  1.00  0.00  0.00  0.00  0.88  0.00
  HS02004770HS02004777    1.00   0.00  0.04  0.00  0.96  0.00  0.00  0.00  0.02  0.00
  HS02004799HS02004480    1.00   0.00  0.02  0.00  0.96  0.00  0.02  0.00  0.00  0.00
  HS02004792HS02004799    1.00   0.00  0.00  0.00  0.99  0.01  0.00  0.00  0.98  0.00
  HS02004788HS02004792    1.00   0.00  0.00  0.00  0.99  0.01  0.00  0.00  0.98  0.00
  HS02004785HS02004788    1.00   0.00  0.00  0.00  1.00  0.00  0.00  0.00  0.00  0.00
  HS02004777HS02004785    1.00   0.00  0.00  0.00  1.00  0.00  0.00  0.00  0.11  0.00
  HS02004480HS02004478    1.00   0.04  0.00  0.00  0.58  0.00  0.00  0.38  0.00  0.00
  HS02004479HS02004480    1.00   0.02  0.00  0.00  0.98  0.00  0.00  0.00  0.11  0.00
  HS02004862HS02004870    1.00   0.00  0.00  0.00  1.00  0.00  0.00  0.00  0.02  0.00
  HS02004848HS02004852    1.00   0.04  0.00  0.00  0.96  0.00  0.00  0.00  0.81  0.00
  HS02004856HS02004862    1.00   0.00  0.04  0.00  0.96  0.00  0.00  0.00  0.84  0.00
  HS02004852HS02004856    1.00   0.04  0.00  0.00  0.96  0.00  0.00  0.00  0.70  0.00
  HS02004802HS02004478    1.00   0.04  0.00  0.00  0.96  0.00  0.00  0.00  0.02  0.00
  HS02004478WS02006287    1.00   0.04  0.00  0.00  0.63  0.33  0.00  0.00  0.58  0.00
  HS02004817HS02004807    1.00   0.00  0.04  0.00  0.96  0.00  0.00  0.00  0.01  0.00
  HS02004807HS02004802    1.00   0.04  0.00  0.00  0.96  0.00  0.00  0.00  0.00  0.00
  YS02001759YS02001757    1.00   0.00  0.00  0.00  1.00  0.00  0.00  0.00  0.15  0.00
  YS02001762YS02001759    1.00   0.00  0.00  0.00  1.00  0.00  0.00  0.00  0.02  0.00
  YS02001765YS02001762    1.00   0.00  0.00  0.00  1.00  0.00  0.00  0.00  0.13  0.00
  YS02001770YS02001767    1.00   0.00  0.00  0.00  1.00  0.00  0.00  0.00  0.00  0.00
  YS02001774YS02001770    1.00   0.00  0.04  0.00  0.96  0.00  0.00  0.00  0.02  0.00
  YS02001779YS02001774    1.00   0.00  0.00  0.00  1.00  0.00  0.00  0.00  0.16  0.00
  YS02001649YS02001757    1.00   0.00  0.00  0.00  1.00  0.00  0.00  0.00  0.15  0.00
  YS02001767YS02001765    1.00   0.00  0.00  0.00  1.00  0.00  0.00  0.00  0.00  0.00
  YS02006561YS02001783    1.00   0.04  0.00  0.00  0.55  0.41  0.00  0.00  0.39  0.00
  YS02001783YS02001784    1.00   0.00  0.04  0.00  0.96  0.00  0.00  0.00  0.00  0.00
  YS02001784YS02001785    1.00   0.00  0.00  0.00  1.00  0.00  0.00  0.00  0.16  0.00
  YS02001788YS02001790    1.00   0.00  0.00  0.00  0.61  0.39  0.00  0.00  0.35  0.00
  YS02001790YS02001791    1.00   0.00  0.00  0.00  0.58  0.42  0.00  0.00  0.34  0.00
  YS02001791YS02001793    1.00   0.00  0.00  0.00  0.59  0.41  0.00  0.00  0.03  0.00
  YS02001910YS02001907    1.00   0.00  0.00  0.00  0.98  0.00  0.00  0.02  0.12  0.00
  YS02001786YS02001788    1.00   0.00  0.00  0.00  0.60  0.40  0.00  0.00  0.00  0.00
  YS02001915YS02001910    1.00   0.00  0.00  0.00  0.99  0.01  0.00  0.00  0.13  0.00
  YS02001918YS02001915    1.00   0.00  0.01  0.00  0.98  0.01  0.00  0.00  0.45  0.00
  YS02001923YS02001920    1.00   0.00  0.00  0.00  1.00  0.00  0.00  0.00  0.64  0.00
  YS02001926YS02001923    1.00   0.00  0.03  0.00  0.42  0.00  0.55  0.00  0.00  0.00
  YS02001929YS02001926    1.00   0.00  0.04  0.00  0.96  0.00  0.00  0.00  0.56  0.00
  YS02001920YS02001918    1.00   0.00  0.01  0.00  0.99  0.00  0.00  0.00  0.00  0.00
  YS02001629YS02163301    1.00   0.04  0.00  0.00  0.96  0.00  0.00  0.00  0.00  0.00
  YS02001619YS02001622    1.00   0.04  0.00  0.00  0.96  0.00  0.00  0.00  0.00  0.00
  YS02001622YS02001625    1.00   0.04  0.00  0.00  0.96  0.00  0.00  0.00  0.03  0.00
  YS02001625YS02001629    1.00   0.04  0.01  0.00  0.95  0.00  0.01  0.00  0.00  0.00
  YS02163301YS02001633    1.00   0.00  0.04  0.00  0.96  0.00  0.00  0.00  0.00  0.00
  YS02163601YS02164001    1.00   0.00  0.03  0.00  0.97  0.00  0.00  0.00  0.00  0.00
  YS02164001YS02001641    1.00   0.01  0.02  0.00  0.97  0.00  0.00  0.00  0.06  0.00
  YS02001641YS02001644    1.00   0.00  0.01  0.00  0.99  0.00  0.00  0.00  0.00  0.00
  YS02001647YS02001649    1.00   0.00  0.04  0.00  0.96  0.00  0.00  0.00  0.01  0.00
  YS02006553YS02006556    1.00   0.01  0.00  0.00  0.99  0.00  0.00  0.00  0.03  0.00
  YS02006556YS02006558    1.00   0.00  0.00  0.00  1.00  0.00  0.00  0.00  0.00  0.00
  YSB6556YSB1171          1.00   0.02  0.01  0.00  0.96  0.00  0.00  0.00  0.00  0.00
  YS02001907YS02006553    1.00   0.00  0.02  0.00  0.98  0.00  0.00  0.00  0.00  0.00
  YS02006558YS02006561    1.00   0.04  0.00  0.00  0.44  0.52  0.00  0.00  0.34  0.00
  YS02001633YS02163601    1.00   0.00  0.01  0.00  0.99  0.00  0.00  0.00  0.15  0.00
  YS02001644YS02001647    1.00   0.00  0.04  0.00  0.96  0.00  0.00  0.00  0.00  0.00
  YS02001745YS02001748    1.00   0.00  0.00  0.00  0.94  0.00  0.00  0.06  0.00  0.00
  YS02001748YS02001751    1.00   0.00  0.00  0.00  0.99  0.01  0.00  0.00  0.13  0.00
  YS02001751YS02001754    1.00   0.00  0.00  0.00  0.95  0.00  0.00  0.05  0.01  0.00
  YS02001754YS02001757    1.00   0.00  0.00  0.00  0.99  0.01  0.00  0.00  0.16  0.00
  YS02001882YS02001884    1.00   0.04  0.00  0.00  0.96  0.00  0.00  0.00  0.00  0.00
  YS02001884YS02001887    1.00   0.03  0.01  0.00  0.96  0.00  0.00  0.00  0.00  0.00
  YS02001890YS02001895    1.00   0.00  0.04  0.00  0.96  0.00  0.00  0.00  0.00  0.00
  YS02001895YS02001898    1.00   0.04  0.00  0.00  0.95  0.00  0.00  0.00  0.00  0.00
  YS02001898YS02001901    1.00   0.04  0.00  0.00  0.96  0.00  0.00  0.00  0.00  0.00
  YS02001901YS02001904    1.00   0.04  0.00  0.00  0.96  0.00  0.00  0.00  0.00  0.00
  YS02001904YS02001907    1.00   0.00  0.04  0.00  0.96  0.00  0.00  0.00  0.00  0.00
  YS02001887YS02001890    1.00   0.00  0.00  0.00  0.98  0.00  0.02  0.00  0.00  0.00
  YS02001652YS02001649    1.00   0.00  0.00  0.00  1.00  0.00  0.00  0.00  0.15  0.00
  YS02001655YS02001652    1.00   0.00  0.00  0.00  0.95  0.00  0.00  0.05  0.01  0.00
  YS02001658YS02001655    1.00   0.00  0.04  0.00  0.95  0.01  0.00  0.00  0.01  0.00
  YS02001661YS02001658    1.00   0.04  0.00  0.00  0.94  0.02  0.00  0.00  0.00  0.00
  YS02001664YS02001661    1.00   0.04  0.00  0.00  0.94  0.02  0.00  0.00  0.07  0.00
  YSB1154YSB6556          1.00   0.04  0.00  0.00  0.96  0.00  0.00  0.00  0.01  0.00
  YSB1174YSB1171          1.00   0.03  0.01  0.00  0.97  0.00  0.00  0.00  0.00  0.00
  YSB1171HS02004479       1.00   0.02  0.00  0.00  0.97  0.00  0.00  0.00  0.10  0.00
  HS02004881HS02006253    1.00   0.03  0.00  0.00  0.74  0.04  0.00  0.19  0.63  0.00
  YS02001793JiankangQianchi    1.00   0.00  0.00  0.00  0.80  0.20  0.00  0.00  0.18  0.00
  YS02001757CaochengTiaoxuchi    1.00   0.00  0.05  0.00  0.90  0.05  0.00  0.00  0.00  0.00
  WSF200WS02003060        1.00   0.00  0.06  0.00  0.52  0.42  0.00  0.00  0.17  0.00
  1                       1.00   0.00  0.00  0.00  0.00  1.00  0.00  0.00  0.41  0.00
  2                       1.00   0.53  0.00  0.00  0.00  0.47  0.00  0.00  0.12  0.00
  3                       1.00   0.10  0.00  0.00  0.00  0.90  0.00  0.00  0.17  0.00
  4                       1.00   1.00  0.00  0.00  0.00  0.00  0.00  0.00  0.00  0.00
  
  
  *************************
  Conduit Surcharge Summary
  *************************
  
  ----------------------------------------------------------------------------
                                                           Hours        Hours 
                         --------- Hours Full --------   Above Full   Capacity
  Conduit                Both Ends  Upstream  Dnstream   Normal Flow   Limited
  ----------------------------------------------------------------------------
  WS02006229WS02006228        2.82      3.02      2.82      4.63         2.82
  WS02006256WS02006235        6.44      6.44      7.67      3.13         0.01
  WS02006253WS02006251        0.09      0.09      0.18      0.01         0.01
  WS02006252WS02006251        0.81      0.81      1.67      1.45         0.01
  WS02006251WS02006249        0.01      0.10      0.01      1.02         0.01
  WS02006249WS02006248        0.01      0.01      0.01      3.72         0.01
  WS02006248WS02006247        0.01      0.01      0.49      0.01         0.01
  WS02006247WS02006245        0.57      0.62      0.57      4.64         0.35
  WS02006245WS02006243        0.70      0.70      1.18      0.02         0.01
  WS02006243WS02006242        1.47      1.47      2.25      0.01         0.01
  WS02006242WS02006240        2.01      2.01      2.58      1.45         0.01
  WS02006240WS02006239        2.04      2.04      2.10      0.02         0.01
  WS02006239WS02006238        2.58      2.58      2.74      0.03         0.01
  WS02006238WS02006235        2.65      2.65      3.02      0.01         0.02
  WS02006235WS02006234        2.17      2.17      2.48      5.99         0.14
  WS02006234WS02006232        2.26      2.26      3.09      0.01         0.01
  WS02006232WS02006231        1.82      1.82      3.09      0.01         0.01
  WS02006231WS02006230        1.70      1.70      1.85      6.22         0.12
  WS02006230WS02006229        3.61      4.48      3.62      6.45         3.45
  WS02006228WS02006109        2.93      3.39      2.93      5.28         2.93
  WS02006116WS02004401        1.16      1.16      1.22      0.97         0.96
  WS02006115WS02006116        0.77      0.77      0.79      0.58         0.58
  WS02006113WS02006111        0.01      0.01      0.01      0.05         0.01
  WS02006112WS02006115        0.70      0.70      2.08      0.01         0.01
  WS02006111WS02006112        0.01      0.01      4.66      0.01         0.01
  WS02006110WS02006113        0.01      0.01      3.18      0.01         0.01
  WS02006109WS02006110        1.94      1.94      3.39      1.94         0.01
  WS02004411WS02004412        0.01      0.01      0.01      1.09         0.01
  WS02004401WS02004402        1.22      1.22      1.40      0.20         0.21
  WS02004410WS02004411        0.01      0.01      0.01      0.92         0.01
  WS02004409WS02004410        0.01      0.01      0.01      0.62         0.01
  WS02004406WS02004407        0.01      0.01      1.70      0.01         0.01
  WS02004405WS02004406        1.70      1.74      1.70      2.00         1.69
  WS02004404WS02004405        1.74      1.76      1.74      6.43         1.74
  WS02004403WS02004404        1.41      1.41      1.76      0.01         0.01
  WS02004402WS02004403        1.40      1.40      1.41      1.14         1.14
  WS02003072WS02003073        0.01      0.01      0.01      4.96         0.01
  HS02004876HS02004881        0.01      0.01      0.01      0.86         0.01
  HS02004817HS02004824        0.01      0.01      0.32      0.01         0.01
  HS02004785HS02004788        0.01      0.01      0.01      0.81         0.01
  HS02004480HS02004478        0.01      0.01      0.01      1.81         0.01
  HS02004817HS02004807        0.01      0.01      0.32      0.01         0.01
  YS02001759YS02001757        6.35      6.35      6.36      0.01         0.01
  YS02001762YS02001759        6.34      6.34      6.35      0.01         0.01
  YS02001765YS02001762        6.34      6.34      6.34      0.01         0.01
  YS02001770YS02001767        6.33      6.33      6.33      1.29         0.65
  YS02001774YS02001770        6.33      6.33      6.34      0.01         0.01
  YS02001779YS02001774        6.31      6.31      6.34      0.01         0.01
  YS02001649YS02001757        6.34      6.34      6.36      0.01         0.01
  YS02001767YS02001765        6.33      6.33      6.34      0.01         0.01
  YS02006561YS02001783        2.42      2.42      2.93      0.01         0.01
  YS02001783YS02001784        2.92      2.93      2.94      2.80         2.72
  YS02001784YS02001785        2.88      2.94      2.88      3.58         2.88
  YS02001788YS02001790        2.83      2.83      3.39      0.01         0.01
  YS02001790YS02001791        3.39      3.39      3.50      2.33         2.25
  YS02001791YS02001793        3.50      3.50      3.72      0.01         0.01
  YS02001910YS02001907        2.74      2.74      3.05      0.01         0.01
  YS02001786YS02001788        2.83      2.88      2.83      3.20         2.83
  YS02001915YS02001910        2.56      2.56      2.74      0.01         0.01
  YS02001918YS02001915        2.33      2.33      2.56      0.01         0.01
  YS02001923YS02001920        2.16      2.16      2.37      0.01         0.01
  YS02001926YS02001923        0.01      0.01      0.01      0.01         0.01
  YS02001929YS02001926        0.01      0.01      0.01      0.01         0.01
  YS02001920YS02001918        2.33      2.33      2.37      0.01         0.01
  YS02001629YS02163301        6.33      6.33      6.33      0.01         0.01
  YS02001619YS02001622        6.31      6.31      6.31      0.01         0.01
  YS02001622YS02001625        6.31      6.31      6.32      0.01         0.01
  YS02001625YS02001629        6.31      6.31      6.32      0.01         0.01
  YS02163301YS02001633        6.33      6.33      6.33      0.01         0.01
  YS02163601YS02164001        6.33      6.33      6.34      0.01         0.01
  YS02164001YS02001641        6.33      6.33      6.34      0.01         0.02
  YS02001641YS02001644        6.34      6.34      6.34      3.05         3.06
  YS02001647YS02001649        6.32      6.32      6.34      0.01         0.01
  YS02006553YS02006556        2.90      2.90      3.13      0.01         0.01
  YS02006556YS02006558        2.96      2.96      3.17      0.01         0.01
  YSB6556YSB1171              0.01      0.01      0.43      0.01         0.01
  YS02001907YS02006553        3.53      3.53      3.73      0.01         0.01
  YS02006558YS02006561        2.60      2.87      2.60      3.40         2.60
  YS02001633YS02163601        6.33      6.33      6.34      0.01         0.01
  YS02001644YS02001647        6.32      6.32      6.34      0.01         0.01
  YS02001745YS02001748        0.53      0.53      6.28      0.01         0.01
  YS02001748YS02001751        6.29      6.29      6.30      0.01         0.01
  YS02001751YS02001754        6.30      6.30      6.31      0.01         0.01
  YS02001754YS02001757        6.31      6.31      6.36      0.01         0.01
  YS02001882YS02001884        2.56      2.56      2.59      0.01         0.01
  YS02001884YS02001887        2.64      2.64      2.67      0.01         0.01
  YS02001890YS02001895        2.54      2.54      2.75      0.01         0.01
  YS02001895YS02001898        2.53      2.53      2.54      0.01         0.01
  YS02001898YS02001901        2.55      2.55      2.64      0.01         0.01
  YS02001901YS02001904        2.62      2.62      2.64      0.01         0.01
  YS02001904YS02001907        2.62      2.62      3.15      0.01         0.01
  YS02001887YS02001890        2.70      2.70      2.72      1.55         0.01
  YS02001652YS02001649        6.32      6.32      6.34      0.01         0.01
  YS02001655YS02001652        6.30      6.30      6.31      0.01         0.01
  YS02001658YS02001655        6.29      6.29      6.30      0.01         0.01
  YS02001661YS02001658        1.18      1.18      6.29      0.01         0.01
  YS02001664YS02001661        0.01      0.01      2.58      0.01         0.01
  YSB1174YSB1171              0.01      0.01      0.16      0.01         0.01
  YS02001793JiankangQianchi        3.66      3.66      4.77      0.01         0.01
  YS02001757CaochengTiaoxuchi        5.89      5.89      6.36      0.01         0.01
  
  
  ***************
  Pumping Summary
  ***************
  
  ---------------------------------------------------------------------------------------------------------
                                                  Min       Avg       Max     Total     Power    % Time Off
                        Percent   Number of      Flow      Flow      Flow    Volume     Usage    Pump Curve
  Pump                 Utilized   Start-Ups       LPS       LPS       LPS  10^6 ltr     Kw-hr    Low   High
  ---------------------------------------------------------------------------------------------------------
  CC-Pump-1               44.67           7      0.00    122.41    200.00     1.560      1.46    0.0    0.0
  CC-Pump-2               71.20           5      0.00    136.90    200.00     2.709      2.64    0.0    4.2
  JK-Pump-1               70.20           6      0.00    208.42    300.00     3.349     24.53    0.0    0.0
  JK-Pump-2               95.74           4      0.00    184.50    300.00     4.132     39.37    0.0    0.0
  XR-Pump-1               80.84           9      0.00     66.71     95.00     1.482      7.70    0.0    0.0
  XR-Pump-2               76.59           5      0.00     67.74     95.00     1.511      8.91    0.0    0.0
  XR-Pump-3               78.71           4      0.00     69.59     95.00     1.567      9.33    0.0    0.0
  XR-Pump-4               72.33           8      0.00     64.37     95.00     1.282      6.48    0.0    0.0
  

  Analysis begun on:  Thu Jan  6 22:53:48 2022
  Analysis ended on:  Thu Jan  6 22:53:52 2022
  Total elapsed time: 00:00:04