
  EPA STORM WATER MANAGEMENT MODEL - VERSION 5.1 (Build 5.3.0.dev0)
  --------------------------------------------------------------

  WARNING 04: minimum elevation drop used for Conduit WS02004404WS02004405
  WARNING 03: negative offset ignored for Link YS02001904YS02001907
  
  *********************************************************
  NOTE: The summary statistics displayed in this report are
  based on results found at every computational time step,  
  not just on results from each reporting time step.
  *********************************************************
  
  ****************
  Analysis Options
  ****************
  Flow Units ............... LPS
  Process Models:
    Rainfall/Runoff ........ YES
    RDII ................... NO
    Snowmelt ............... NO
    Groundwater ............ NO
    Flow Routing ........... YES
    Ponding Allowed ........ NO
    Water Quality .......... NO
  Infiltration Method ...... HORTON
  Flow Routing Method ...... DYNWAVE
  Surcharge Method ......... EXTRAN
  Starting Date ............ 08/28/2015 08:00:00
  Ending Date .............. 08/28/2015 15:50:00
  Antecedent Dry Days ...... 8.0
  Report Time Step ......... 00:01:00
  Wet Time Step ............ 00:01:00
  Dry Time Step ............ 00:01:00
  Routing Time Step ........ 5.00 sec
  Variable Time Step ....... YES
  Maximum Trials ........... 8
  Number of Threads ........ 4
  Head Tolerance ........... 0.001500 m
  
  
  **************************        Volume         Depth
  Runoff Quantity Continuity     hectare-m            mm
  **************************     ---------       -------
  Total Precipitation ......         3.868         8.469
  Evaporation Loss .........         0.000         0.000
  Infiltration Loss ........         0.985         2.157
  Surface Runoff ...........         1.916         4.194
  Final Storage ............         0.968         2.119
  Continuity Error (%) .....        -0.017
  
  
  **************************        Volume        Volume
  Flow Routing Continuity        hectare-m      10^6 ltr
  **************************     ---------     ---------
  Dry Weather Inflow .......         0.616         6.165
  Wet Weather Inflow .......         1.915        19.148
  Groundwater Inflow .......         0.000         0.000
  RDII Inflow ..............         0.000         0.000
  External Inflow ..........         0.102         1.024
  External Outflow .........         2.073        20.726
  Flooding Loss ............         0.277         2.774
  Evaporation Loss .........         0.000         0.000
  Exfiltration Loss ........         0.000         0.000
  Initial Stored Volume ....         0.076         0.761
  Final Stored Volume ......         0.378         3.782
  Continuity Error (%) .....        -0.688
  
  
  *************************
  Highest Continuity Errors
  *************************
  Node YS02001774 (24.44%)
  Node HS02004842 (20.90%)
  Node YS02001884 (13.55%)
  Node YSB1171 (4.66%)
  Node HS02004817 (3.83%)
  
  
  ***************************
  Time-Step Critical Elements
  ***************************
  Link 3 (84.81%)
  Link WS02006229WS02006228 (7.45%)
  Link WS02006280WS02006229 (2.17%)
  Link WS02006252WS02006251 (1.34%)
  
  
  ********************************
  Highest Flow Instability Indexes
  ********************************
  Link WS02006252WS02006251 (50)
  Link WS02006113WS02006111 (34)
  Link WS02006111WS02006112 (31)
  Link YS02001779YS02001774 (20)
  Link YS02006558YS02006561 (18)
  
  
  *************************
  Routing Time Step Summary
  *************************
  Minimum Time Step           :     0.50 sec
  Average Time Step           :     0.92 sec
  Maximum Time Step           :     5.00 sec
  Percent in Steady State     :    -0.00
  Average Iterations per Step :     4.14
  Percent Not Converging      :    24.01
  
  
  ***************************
  Subcatchment Runoff Summary
  ***************************
  
  ------------------------------------------------------------------------------------------------------------------------------
                            Total      Total      Total      Total     Imperv       Perv      Total       Total     Peak  Runoff
                           Precip      Runon       Evap      Infil     Runoff     Runoff     Runoff      Runoff   Runoff   Coeff
  Subcatchment                 mm         mm         mm         mm         mm         mm         mm    10^6 ltr      LPS
  ------------------------------------------------------------------------------------------------------------------------------
  sub0                       8.47       0.00       0.00       0.59       6.61       0.00       6.61        0.01     1.03   0.781
  sub1                       8.47       0.00       0.00       0.93       6.28       0.00       6.28        0.04     7.43   0.741
  sub2                       8.47       0.00       0.00       3.13       4.43       0.00       4.43        0.04     7.08   0.523
  sub3                       8.47       0.00       0.00       3.13       4.39       0.00       4.39        0.10    15.91   0.518
  sub4                       8.47       0.00       0.00       0.93       6.13       0.00       6.13        0.13    19.23   0.724
  sub5                       8.47       0.00       0.00       0.59       6.56       0.00       6.56        0.07    13.22   0.775
  sub7                       8.47       0.00       0.00       0.76       6.45       0.00       6.45        0.02     4.04   0.762
  sub8                       8.47       0.00       0.00       0.76       6.44       0.00       6.44        0.04     7.54   0.761
  sub9                       8.47       0.00       0.00       0.76       6.44       0.00       6.44        0.03     5.65   0.760
  sub10                      8.47       0.00       0.00       0.68       6.50       0.00       6.50        0.07    12.87   0.767
  sub11                      8.47       0.00       0.00       0.68       6.52       0.00       6.52        0.08    13.93   0.769
  sub12                      8.47       0.00       0.00       1.10       6.18       0.00       6.18        0.05    10.23   0.730
  sub14                      8.47       0.00       0.00       0.76       6.44       0.00       6.44        0.06    11.15   0.760
  sub15                      8.47       0.00       0.00       2.54       4.95       0.00       4.95        0.09    15.40   0.584
  sub16                      8.47       0.00       0.00       2.79       4.76       0.00       4.76        0.05     9.37   0.561
  sub17                      8.47       0.00       0.00       2.71       4.82       0.00       4.82        0.04     7.75   0.570
  sub22                      8.47       0.00       0.00       3.64       4.04       0.00       4.04        0.26    47.08   0.477
  sub23                      8.47       0.00       0.00       3.13       4.46       0.00       4.46        0.21    39.46   0.527
  sub60                      8.47       0.00       0.00       1.02       4.75       0.00       4.75        1.44   149.28   0.561
  sub61                      8.47       0.00       0.00       1.44       4.95       0.00       4.95        1.53   180.35   0.585
  sub62                      8.47       0.00       0.00       0.68       5.35       0.00       5.35        1.64   187.08   0.631
  sub63                      8.47       0.00       0.00       2.46       4.37       0.00       4.37        1.32   164.01   0.516
  sub64                      8.47       0.00       0.00       1.27       4.55       0.00       4.55        1.38   141.99   0.537
  sub65                      8.47       0.00       0.00       1.10       4.62       0.00       4.62        1.42   144.28   0.545
  sub66                      8.47       0.00       0.00       2.46       3.94       0.00       3.94        1.21   129.20   0.465
  sub67                      8.47       0.00       0.00       0.68       5.75       0.00       5.75        1.78   226.25   0.679
  sub68                      8.47       0.00       0.00       1.19       5.24       0.00       5.24        1.61   196.27   0.618
  sub69                      8.47       0.00       0.00       1.27       5.53       0.00       5.53        1.29   176.57   0.653
  sub70                      8.47       5.64       0.00       4.80       7.11       0.00       7.11        1.63   167.69   0.504
  sub71                      8.47       0.00       0.00       0.68       5.16       0.00       5.16        1.22   132.38   0.610
  sub72                      8.47       0.00       0.00       0.59       3.87       0.00       3.87        0.79    64.98   0.457
  sub73                      8.47       6.92       0.00       5.23       7.51       0.00       7.51        1.76   149.38   0.488
  sub74                      8.47       0.00       0.00       6.35       1.66       0.00       1.66        0.66    93.55   0.196
  
  
  ******************
  Node Depth Summary
  ******************
  
  ---------------------------------------------------------------------------------
                                 Average  Maximum  Maximum  Time of Max    Reported
                                   Depth    Depth      HGL   Occurrence   Max Depth
  Node                 Type       Meters   Meters   Meters  days hr:min      Meters
  ---------------------------------------------------------------------------------
  WS02001211           JUNCTION     0.63     0.76     5.60     0  01:00        0.76
  WS02001212           JUNCTION     0.36     0.45     5.52     0  01:00        0.45
  WS02001213           JUNCTION     0.60     0.67     5.43     0  00:56        0.67
  WS02003069           JUNCTION     0.45     0.52     5.11     0  02:34        0.52
  WS02003072           JUNCTION     0.51     0.58     4.95     0  02:35        0.58
  WS02003073           JUNCTION     0.31     0.35     4.42     0  02:35        0.35
  WS02003060           JUNCTION     0.40     0.46     5.39     0  02:33        0.46
  WS02003066           JUNCTION     0.25     0.30     5.86     0  02:32        0.30
  WS02003059           JUNCTION     0.67     0.72     5.41     0  02:34        0.72
  WS02003067           JUNCTION     0.61     0.71     6.03     0  02:32        0.71
  WS02004401           JUNCTION     0.73     0.87     6.87     0  02:30        0.87
  WS02004402           JUNCTION     0.76     0.89     6.85     0  02:30        0.89
  WS02004403           JUNCTION     0.78     0.91     6.84     0  02:29        0.91
  WS02004404           JUNCTION     0.85     0.98     6.83     0  02:29        0.98
  WS02004406           JUNCTION     0.85     0.97     6.80     0  02:30        0.97
  WS02004409           JUNCTION     0.55     0.68     6.45     0  02:31        0.68
  WS02004410           JUNCTION     0.57     0.70     6.42     0  02:31        0.70
  WS02004411           JUNCTION     0.58     0.70     6.38     0  02:32        0.70
  WS02004412           JUNCTION     0.59     0.71     6.35     0  02:32        0.71
  WS02004413           JUNCTION     0.75     0.87     6.34     0  02:32        0.87
  WS02004405           JUNCTION     0.85     0.97     6.82     0  02:29        0.97
  WS02006109           JUNCTION     0.82     0.99     7.61     0  02:27        0.99
  WS02006110           JUNCTION     0.81     0.93     7.52     0  02:28        0.93
  WS02006111           JUNCTION     0.24     0.29     7.00     0  02:28        0.29
  WS02006112           JUNCTION     0.91     1.11     6.99     0  02:32        1.08
  WS02006113           JUNCTION     0.38     0.46     7.35     0  02:28        0.46
  WS02006115           JUNCTION     0.63     0.77     6.91     0  02:29        0.77
  WS02006116           JUNCTION     0.71     0.85     6.89     0  02:29        0.85
  WS02006230           JUNCTION     0.84     1.04     7.78     0  02:27        1.04
  WS02006231           JUNCTION     0.57     0.71     7.83     0  02:27        0.71
  WS02006232           JUNCTION     0.71     0.84     7.88     0  02:27        0.84
  WS02006234           JUNCTION     0.65     0.78     7.93     0  02:27        0.78
  WS02006235           JUNCTION     0.69     0.81     7.97     0  02:27        0.81
  WS02006238           JUNCTION     0.72     0.84     7.98     0  02:27        0.84
  WS02006240           JUNCTION     0.64     0.76     8.05     0  02:27        0.76
  WS02006242           JUNCTION     0.71     0.82     8.09     0  02:27        0.82
  WS02006243           JUNCTION     0.61     0.71     8.13     0  02:27        0.71
  WS02006245           JUNCTION     0.58     0.68     8.17     0  02:28        0.68
  WS02006247           JUNCTION     0.59     0.69     8.19     0  02:28        0.69
  WS02006248           JUNCTION     0.54     0.62     8.21     0  02:27        0.62
  WS02006249           JUNCTION     0.56     0.63     8.23     0  02:27        0.63
  WS02006239           JUNCTION     0.69     0.81     8.01     0  02:28        0.81
  WS02006251           JUNCTION     0.58     0.67     8.34     0  02:27        0.67
  WS02006252           JUNCTION     0.54     0.59     8.84     0  04:33        0.59
  WS02006253           JUNCTION     0.60     0.69     8.34     0  02:26        0.69
  WS02006256           JUNCTION     1.06     1.15     8.09     0  00:00        1.13
  WS02004138           JUNCTION     0.14     0.19     7.44     0  00:40        0.19
  WS02004407           JUNCTION     0.25     0.30     6.62     0  02:30        0.30
  WS02006228           JUNCTION     0.84     1.03     7.68     0  02:27        1.03
  WS02006229           JUNCTION     0.82     1.03     7.72     0  02:27        1.03
  WS02006280           JUNCTION     0.07     0.14     8.41     0  02:27        0.14
  WS02006284           JUNCTION     0.36     0.48     8.88     0  02:27        0.48
  WS02006287           JUNCTION     0.09     0.21     9.16     0  02:27        0.21
  WSF200               JUNCTION     0.25     0.31     5.55     0  02:33        0.31
  HS02004901           JUNCTION     0.12     0.22    10.04     0  02:25        0.22
  HS02004881           JUNCTION     0.01     0.02     9.05     0  02:26        0.02
  HS02004876           JUNCTION     0.04     0.10     9.13     0  02:25        0.10
  HS02004870           JUNCTION     0.01     0.04     9.33     0  02:26        0.04
  HS02004862           JUNCTION     0.02     0.05     9.43     0  02:27        0.05
  HS02004856           JUNCTION     0.08     0.11     9.53     0  02:26        0.11
  HS02004852           JUNCTION     0.01     0.03     9.54     0  02:27        0.03
  HS02004848           JUNCTION     0.01     0.03     9.63     0  02:26        0.03
  HS02004842           JUNCTION     0.33     0.36     9.63     0  02:26        0.36
  HS02004837           JUNCTION     0.03     0.05     9.63     0  02:26        0.05
  HS02004830           JUNCTION     0.04     0.06     9.53     0  02:26        0.06
  HS02004824           JUNCTION     0.02     0.04     9.45     0  02:27        0.04
  HS02004817           JUNCTION     0.43     0.53     9.37     0  02:27        0.53
  HS02004807           JUNCTION     0.12     0.20     9.37     0  02:27        0.20
  HS02004802           JUNCTION     0.16     0.24     9.37     0  02:27        0.24
  HS02004799           JUNCTION     0.12     0.25     9.46     0  02:25        0.25
  HS02004792           JUNCTION     0.03     0.09     9.62     0  02:25        0.09
  HS02004788           JUNCTION     0.02     0.07     9.97     0  02:26        0.07
  HS02004785           JUNCTION     0.05     0.13    10.03     0  02:25        0.13
  HS02004777           JUNCTION     0.15     0.24    10.04     0  02:25        0.24
  HS02004770           JUNCTION     0.12     0.21    10.04     0  02:25        0.21
  HS02004480           JUNCTION     0.08     0.19     9.43     0  02:26        0.19
  HS02004479           JUNCTION     0.11     0.23     9.43     0  02:25        0.23
  HS02004478           JUNCTION     0.06     0.12     9.35     0  02:26        0.12
  YS02001745           JUNCTION     0.26     0.62     8.14     0  04:28        0.61
  YS02001748           JUNCTION     0.63     1.06     8.13     0  04:28        1.05
  YS02001751           JUNCTION     0.81     2.20     9.08     0  03:22        1.22
  YS02001754           JUNCTION     1.06     2.10     8.71     0  03:22        1.47
  YS02001762           JUNCTION     1.26     1.81     8.21     0  03:09        1.67
  YS02001765           JUNCTION     1.21     1.76     8.21     0  03:09        1.62
  YS02001767           JUNCTION     1.17     1.70     8.19     0  03:09        1.59
  YS02001770           JUNCTION     1.17     1.75     8.25     0  03:32        1.59
  YS02001774           JUNCTION     1.24     1.85     8.27     0  03:32        1.66
  YS02001779           JUNCTION     0.99     1.61     8.29     0  03:32        1.40
  YS02001882           JUNCTION     0.36     0.64     7.36     0  03:02        0.63
  YS02001884           JUNCTION     0.46     0.73     7.35     0  03:02        0.73
  YS02001759           JUNCTION     1.29     1.83     8.19     0  03:22        1.70
  YS02001887           JUNCTION     0.54     0.81     7.35     0  03:03        0.81
  YS02001890           JUNCTION     0.57     0.84     7.34     0  03:01        0.84
  YS02001898           JUNCTION     0.34     0.60     7.33     0  03:01        0.59
  YS02001901           JUNCTION     0.45     0.72     7.33     0  03:01        0.72
  YS02001904           JUNCTION     0.43     0.70     7.33     0  03:01        0.70
  YS02001907           JUNCTION     0.76     1.05     7.34     0  03:08        1.04
  YS02001910           JUNCTION     0.55     0.82     7.33     0  03:01        0.82
  YS02001915           JUNCTION     0.35     0.61     7.32     0  03:01        0.60
  YS02001918           JUNCTION     0.11     0.25     7.32     0  03:02        0.25
  YS02001619           JUNCTION     0.78     1.59     8.52     0  04:00        1.18
  YS02001629           JUNCTION     1.13     1.66     8.20     0  05:21        1.62
  YS02001641           JUNCTION     1.23     1.71     8.14     0  03:04        1.66
  YS02001644           JUNCTION     1.23     1.77     8.20     0  03:10        1.64
  YS02001652           JUNCTION     1.07     2.12     8.72     0  03:05        1.55
  YS02001655           JUNCTION     0.84     2.20     9.05     0  03:04        1.59
  YS02001920           JUNCTION     0.21     0.33     7.33     0  03:02        0.32
  YS02001923           JUNCTION     0.08     0.12     7.38     0  03:02        0.12
  YS02001926           JUNCTION     0.17     0.23     7.67     0  03:02        0.23
  YS02001929           JUNCTION     0.09     0.12     7.81     0  03:01        0.12
  YS02001658           JUNCTION     0.57     1.11     8.25     0  04:09        0.99
  YS02001661           JUNCTION     0.36     0.66     8.06     0  04:17        0.64
  YS02001664           JUNCTION     0.09     0.15     8.08     0  03:01        0.15
  YS02001622           JUNCTION     0.80     1.49     8.39     0  04:00        1.19
  YS02001633           JUNCTION     1.22     1.71     8.17     0  05:21        1.70
  YS02001649           JUNCTION     1.27     1.87     8.26     0  03:05        1.66
  YS02001757           JUNCTION     1.39     1.95     8.21     0  03:22        1.79
  YS02001895           JUNCTION     0.33     0.59     7.34     0  03:01        0.59
  YS02001625           JUNCTION     1.08     1.62     8.22     0  04:00        1.52
  YS02163301           JUNCTION     1.16     1.67     8.19     0  05:21        1.65
  YS02163601           JUNCTION     1.27     1.74     8.14     0  05:21        1.73
  YS02164001           JUNCTION     1.21     1.69     8.15     0  03:14        1.66
  YS02001647           JUNCTION     1.06     1.64     8.25     0  03:10        1.43
  YSB1154              JUNCTION     0.25     0.38     9.43     0  02:26        0.38
  YSB6556              JUNCTION     0.15     0.26     9.43     0  02:26        0.26
  YSB1174              JUNCTION     0.20     0.32     9.43     0  02:26        0.32
  YSB1171              JUNCTION     0.40     0.53     9.43     0  02:25        0.53
  YS02006553           JUNCTION     0.76     1.05     7.34     0  02:55        1.05
  YS02006561           JUNCTION     0.18     0.41     7.07     0  02:57        0.40
  YS02006556           JUNCTION     0.74     1.02     7.33     0  03:01        1.02
  YS02006558           JUNCTION     0.78     1.06     7.33     0  03:08        1.04
  YS02001783           JUNCTION     0.37     1.47     7.61     0  02:56        0.96
  YS02001784           JUNCTION     0.41     1.38     7.45     0  02:56        0.98
  YS02001786           JUNCTION     0.37     1.07     7.10     0  02:56        0.93
  YS02001788           JUNCTION     0.33     1.16     7.14     0  02:56        0.90
  YS02001790           JUNCTION     0.46     1.44     7.08     0  02:54        1.14
  YS02001791           JUNCTION     0.45     1.59     7.06     0  02:53        1.21
  YS02001793           JUNCTION     0.65     2.70     7.53     0  02:50        1.79
  WS02004139           JUNCTION     0.57     0.71     5.62     0  01:00        0.71
  WSC                  OUTFALL      0.31     0.35     1.02     0  02:36        0.35
  3                    OUTFALL      0.09     0.13     6.13     0  00:00        0.13
  4                    OUTFALL      0.09     0.13     7.13     0  02:28        0.13
  5                    OUTFALL      0.00     0.00     5.00     0  00:00        0.00
  JK-storage           STORAGE      2.54     5.80     6.60     0  02:56        5.80
  CC-storage           STORAGE      0.59     0.98     7.98     0  04:46        0.98
  XR-storage           STORAGE      7.13     7.72     5.72     0  02:45        7.72
  
  
  *******************
  Node Inflow Summary
  *******************
  
  -------------------------------------------------------------------------------------------------
                                  Maximum  Maximum                  Lateral       Total        Flow
                                  Lateral    Total  Time of Max      Inflow      Inflow     Balance
                                   Inflow   Inflow   Occurrence      Volume      Volume       Error
  Node                 Type           LPS      LPS  days hr:min    10^6 ltr    10^6 ltr     Percent
  -------------------------------------------------------------------------------------------------
  WS02001211           JUNCTION      7.35   387.67     0  00:59       0.207        5.82       0.543
  WS02001212           JUNCTION      0.00   387.67     0  01:00           0        5.79       0.290
  WS02001213           JUNCTION      0.00   387.67     0  01:00           0        5.77       0.382
  WS02003069           JUNCTION      0.32   773.45     0  02:34     0.00902        15.4       0.200
  WS02003072           JUNCTION      0.00   773.43     0  02:34           0        15.3       0.244
  WS02003073           JUNCTION      1.82   775.25     0  02:35      0.0514        15.3       0.276
  WS02003060           JUNCTION     16.53   773.15     0  02:33       0.466        15.4       0.190
  WS02003066           JUNCTION      0.00   559.75     0  02:32           0        9.21       0.056
  WS02003059           JUNCTION      0.00   387.69     0  00:57           0        5.76       0.647
  WS02003067           JUNCTION      0.00   559.75     0  02:32           0        9.22       0.113
  WS02004401           JUNCTION      0.00   560.95     0  02:27           0        9.48       0.255
  WS02004402           JUNCTION      0.00   560.29     0  02:27           0        9.46       0.237
  WS02004403           JUNCTION      0.00   560.05     0  02:29           0        9.44       0.213
  WS02004404           JUNCTION      0.16   560.26     0  02:30     0.00457        9.42       0.158
  WS02004406           JUNCTION      0.00   560.21     0  02:29           0        9.38       0.384
  WS02004409           JUNCTION      0.00   560.01     0  02:30           0        9.34       0.211
  WS02004410           JUNCTION      0.00   559.88     0  02:30           0        9.32       0.233
  WS02004411           JUNCTION      0.00   559.81     0  02:31           0         9.3       0.236
  WS02004412           JUNCTION      0.00   559.78     0  02:31           0        9.28       0.250
  WS02004413           JUNCTION      0.00   559.76     0  02:32           0        9.25       0.362
  WS02004405           JUNCTION      0.04   560.19     0  02:29     0.00107        9.41       0.235
  WS02006109           JUNCTION      1.23   553.60     0  02:27      0.0347        9.58       0.241
  WS02006110           JUNCTION      0.00   553.57     0  02:27           0        9.56       0.227
  WS02006111           JUNCTION      0.00   576.37     0  02:28           0        9.52       0.054
  WS02006112           JUNCTION      7.75   566.88     0  02:28      0.0414        9.56       0.334
  WS02006113           JUNCTION      0.00   554.12     0  02:27           0        9.54       0.124
  WS02006115           JUNCTION      0.00   576.74     0  02:28           0        9.53       0.249
  WS02006116           JUNCTION      0.00   563.41     0  02:27           0         9.5       0.233
  WS02006230           JUNCTION     10.28   397.13     0  05:31        0.29        8.28       0.188
  WS02006231           JUNCTION      0.00   386.84     0  05:31           0           8       0.176
  WS02006232           JUNCTION      0.00   386.84     0  05:31           0        8.02       0.221
  WS02006234           JUNCTION      0.00   386.84     0  05:31           0        8.03       0.134
  WS02006235           JUNCTION      0.00   386.83     0  05:31           0        8.07       0.147
  WS02006238           JUNCTION      0.00   316.39     0  07:50           0        6.41       0.144
  WS02006240           JUNCTION      0.00   324.72     0  02:03           0        6.41       0.250
  WS02006242           JUNCTION      0.00   338.63     0  02:03           0        6.42       0.292
  WS02006243           JUNCTION      0.00   351.65     0  02:02           0        6.43       0.209
  WS02006245           JUNCTION      0.00   359.26     0  02:02           0        6.44       0.186
  WS02006247           JUNCTION      0.00   365.39     0  02:02           0        6.45       0.163
  WS02006248           JUNCTION      0.00   370.62     0  02:02           0        6.45       0.123
  WS02006249           JUNCTION      0.00   441.76     0  02:27           0        8.66       0.168
  WS02006239           JUNCTION      0.00   316.38     0  07:50           0        6.41       0.232
  WS02006251           JUNCTION      0.08   441.77     0  02:26     0.00217        8.68       0.163
  WS02006252           JUNCTION      0.00   400.00     0  02:01           0        8.45       0.006
  WS02006253           JUNCTION      1.03    41.74     0  02:26     0.00535       0.235       3.644
  WS02006256           JUNCTION      0.00   300.00     0  00:00           0        4.92       0.060
  WS02004138           JUNCTION      0.00   380.00     0  00:40           0        5.64       0.070
  WS02004407           JUNCTION      0.00   560.04     0  02:30           0        9.35       0.094
  WS02006228           JUNCTION      0.00   552.37     0  02:27           0        9.56       0.172
  WS02006229           JUNCTION      0.00   552.28     0  02:27           0        9.57       0.135
  WS02006280           JUNCTION      0.00   204.81     0  02:27           0        1.31       0.005
  WS02006284           JUNCTION      0.10   204.80     0  02:27      0.0027        1.31       0.088
  WS02006287           JUNCTION      0.00   204.70     0  02:27           0        1.31       0.053
  WSF200               JUNCTION      0.00   559.75     0  02:32           0         9.2       0.059
  HS02004901           JUNCTION      9.37     9.37     0  02:23      0.0498      0.0501       3.647
  HS02004881           JUNCTION      4.04    40.76     0  02:26      0.0217        0.23       0.121
  HS02004876           JUNCTION      7.43    36.75     0  02:26      0.0417       0.209       0.259
  HS02004870           JUNCTION      7.54    29.42     0  02:26      0.0411       0.167       0.066
  HS02004862           JUNCTION      7.28    22.06     0  02:26      0.0469       0.126       0.137
  HS02004856           JUNCTION      5.65    14.84     0  02:26       0.031      0.0805       1.824
  HS02004852           JUNCTION      0.00     9.33     0  02:26           0      0.0496       0.109
  HS02004848           JUNCTION     15.91    15.91     0  02:26      0.0988      0.0988       0.047
  HS02004842           JUNCTION      0.00     6.79     0  02:52           0      0.0622      26.416
  HS02004837           JUNCTION     19.22    25.66     0  02:25       0.251         0.3       0.272
  HS02004830           JUNCTION      0.15    25.80     0  02:26     0.00423        0.29       0.427
  HS02004824           JUNCTION     19.28    44.91     0  02:27       0.129       0.418       0.129
  HS02004817           JUNCTION      0.60    45.51     0  02:27      0.0169       0.435       3.988
  HS02004807           JUNCTION     13.93    58.94     0  02:27      0.0757       0.494       0.884
  HS02004802           JUNCTION      0.00    59.00     0  02:28           0       0.491       0.809
  HS02004799           JUNCTION     11.15   123.20     0  02:25      0.0613       0.713       0.360
  HS02004792           JUNCTION     47.36   112.13     0  02:24       0.263       0.652       0.064
  HS02004788           JUNCTION     17.07    65.26     0  02:25       0.132        0.39       0.102
  HS02004785           JUNCTION      0.15    48.39     0  02:25     0.00423       0.259       0.188
  HS02004777           JUNCTION      0.03    48.40     0  02:24    0.000846        0.26       2.037
  HS02004770           JUNCTION     39.46    48.64     0  02:23       0.213       0.261       1.203
  HS02004480           JUNCTION      0.00   146.07     0  02:25           0       0.837       0.127
  HS02004479           JUNCTION      0.00    23.09     0  02:27           0       0.137       0.537
  HS02004478           JUNCTION      0.00   204.69     0  02:26           0        1.31       0.031
  YS02001745           JUNCTION    149.28   334.59     0  04:20        1.44        1.78       0.099
  YS02001748           JUNCTION      0.04   404.10     0  04:13     0.00127        1.79      -0.074
  YS02001751           JUNCTION      0.01   415.22     0  03:15     0.00031        1.45       0.286
  YS02001754           JUNCTION      0.26   228.82     0  03:04     0.00733        1.44       1.326
  YS02001762           JUNCTION      0.00   202.39     0  02:57           0        1.58       1.301
  YS02001765           JUNCTION      0.00   202.50     0  02:57           0        1.58       1.480
  YS02001767           JUNCTION      0.54   202.17     0  02:57      0.0151         1.6       2.114
  YS02001770           JUNCTION    187.24   198.94     0  02:57        1.65        1.68       1.706
  YS02001774           JUNCTION      0.00    36.31     0  06:49           0      0.0987      32.346
  YS02001779           JUNCTION      0.01    35.42     0  06:49    0.000141      0.0408      36.515
  YS02001882           JUNCTION      0.00    18.60     0  02:58           0      0.0132      17.299
  YS02001884           JUNCTION      0.00    22.78     0  02:59           0      0.0403      15.675
  YS02001759           JUNCTION    180.39   380.20     0  02:57        1.53        3.08       0.738
  YS02001887           JUNCTION    226.70   244.83     0  02:58        1.79        1.81       0.433
  YS02001890           JUNCTION      0.00   238.69     0  02:57           0        1.77       0.481
  YS02001898           JUNCTION      0.00   241.75     0  02:57           0        1.76       0.153
  YS02001901           JUNCTION      0.00   245.66     0  02:56           0        1.76       0.353
  YS02001904           JUNCTION      0.00   250.04     0  02:57           0        1.75       0.326
  YS02001907           JUNCTION      0.00   458.60     0  03:08           0        3.82       0.597
  YS02001910           JUNCTION      0.00   225.54     0  02:56           0        2.08       0.527
  YS02001915           JUNCTION    132.40   209.11     0  03:03        1.22        2.08       0.254
  YS02001918           JUNCTION      0.00    73.48     0  03:00           0       0.866       0.176
  YS02001619           JUNCTION    129.20   129.20     0  03:01        1.21        1.21       0.400
  YS02001629           JUNCTION      0.00   226.79     0  03:00           0        1.16       1.377
  YS02001641           JUNCTION      0.00   289.62     0  02:42           0         2.5       0.817
  YS02001644           JUNCTION    142.03   419.84     0  03:00        1.38        3.85       0.655
  YS02001652           JUNCTION      0.00   231.31     0  02:55           0        1.31       1.451
  YS02001655           JUNCTION      0.15   375.21     0  03:03     0.00434        1.32       0.898
  YS02001920           JUNCTION      2.87    67.64     0  03:02      0.0809       0.868       0.287
  YS02001923           JUNCTION      0.04    64.78     0  03:02     0.00106       0.788       0.052
  YS02001926           JUNCTION      0.05    64.97     0  03:01     0.00147       0.789       0.356
  YS02001929           JUNCTION     64.98    64.98     0  03:01       0.788       0.788       0.051
  YS02001658           JUNCTION      0.00   417.40     0  04:09           0        1.54       0.156
  YS02001661           JUNCTION      0.00   360.58     0  04:09           0        1.54       0.069
  YS02001664           JUNCTION    164.01   164.01     0  03:01        1.32        1.32       0.013
  YS02001622           JUNCTION      0.00   170.46     0  03:01           0        1.21       1.301
  YS02001633           JUNCTION    144.48   288.73     0  02:42        1.43        2.55       1.201
  YS02001649           JUNCTION      0.00   640.90     0  03:02           0        5.09       0.711
  YS02001757           JUNCTION      0.00  1108.45     0  03:02           0        9.49       0.975
  YS02001895           JUNCTION      0.00   241.52     0  03:03           0        1.76       0.240
  YS02001625           JUNCTION      0.00   227.07     0  03:00           0        1.19       2.649
  YS02163301           JUNCTION      0.00   168.28     0  02:42           0        1.15       1.921
  YS02163601           JUNCTION      0.11   289.55     0  02:42      0.0031        2.52       1.185
  YS02164001           JUNCTION      0.00   289.63     0  02:42           0         2.5       0.763
  YS02001647           JUNCTION      0.00   419.66     0  03:00           0        3.82       0.611
  YSB1154              JUNCTION     13.22    13.22     0  02:24      0.0743      0.0752       1.964
  YSB6556              JUNCTION      0.00    13.14     0  02:25           0      0.0759       1.671
  YSB1174              JUNCTION     10.23    10.23     0  02:22       0.054      0.0546       2.413
  YSB1171              JUNCTION      0.00    23.08     0  02:25           0       0.136       4.884
  YS02006553           JUNCTION      0.00   445.61     0  03:02           0        3.81       0.391
  YS02006561           JUNCTION      0.00   676.22     0  03:00           0        5.39       0.003
  YS02006556           JUNCTION      0.00   441.03     0  03:02           0        3.81       0.283
  YS02006558           JUNCTION    197.15   662.07     0  03:02        1.63        5.42       0.099
  YS02001783           JUNCTION      0.00   651.99     0  02:57           0        5.39       0.033
  YS02001784           JUNCTION      1.06   653.11     0  02:57      0.0299        5.42       0.058
  YS02001786           JUNCTION      0.06   653.67     0  02:57     0.00159        5.42       0.049
  YS02001788           JUNCTION      0.07   653.27     0  02:57       0.002        5.42       0.029
  YS02001790           JUNCTION      0.15   654.37     0  02:57     0.00437        5.42       0.040
  YS02001791           JUNCTION      0.00   654.45     0  02:57           0        5.42       0.020
  YS02001793           JUNCTION      0.00   690.93     0  02:51           0        5.42       0.004
  WS02004139           JUNCTION      0.32   380.41     0  00:40     0.00905        5.65       0.577
  WSC                  OUTFALL       0.00   775.25     0  02:36           0        15.3       0.000
  3                    OUTFALL       0.00   250.55     0  00:00           0        3.23       0.000
  4                    OUTFALL       0.00   164.75     0  02:28           0         2.2       0.000
  5                    OUTFALL       0.00     0.00     0  00:00           0           0       0.000 ltr
  JK-storage           STORAGE       0.00   974.92     0  02:50           0        5.57      -0.560
  CC-storage           STORAGE       0.00  1108.10     0  03:02           0         9.4      -1.001
  XR-storage           STORAGE     442.93   442.93     0  03:01        8.07        8.67      -0.000
  
  
  **********************
  Node Surcharge Summary
  **********************
  
  Surcharging occurs when water rises above the top of the highest conduit.
  ---------------------------------------------------------------------
                                               Max. Height   Min. Depth
                                   Hours       Above Crown    Below Rim
  Node                 Type      Surcharged         Meters       Meters
  ---------------------------------------------------------------------
  WS02006109           JUNCTION        5.78          0.168        1.652
  WS02006110           JUNCTION        0.99          0.024        1.826
  WS02006112           JUNCTION        1.14          0.110        1.570
  WS02006232           JUNCTION        5.77          0.140        1.340
  WS02006234           JUNCTION        1.19          0.057        1.183
  WS02006235           JUNCTION        4.40          0.098        1.192
  WS02006238           JUNCTION        5.76          0.116        1.314
  WS02006240           JUNCTION        1.28          0.045        1.345
  WS02006242           JUNCTION        5.76          0.090        0.730
  WS02006243           JUNCTION        0.16          0.002        0.768
  WS02006239           JUNCTION        1.88          0.066        1.224
  WS02006252           JUNCTION        5.86          0.193        0.907
  WS02006228           JUNCTION        5.38          0.200        2.000
  YS02001751           JUNCTION        2.04          1.200        0.000
  YS02001754           JUNCTION        4.05          1.052        0.098
  YS02001762           JUNCTION        5.46          0.811        0.339
  YS02001765           JUNCTION        5.16          0.760        0.340
  YS02001767           JUNCTION        4.92          0.703        0.327
  YS02001770           JUNCTION        4.77          0.722        0.198
  YS02001774           JUNCTION        5.38          0.852        0.198
  YS02001779           JUNCTION        3.87          0.607        0.073
  YS02001759           JUNCTION        5.53          0.827        0.383
  YS02001907           JUNCTION        0.27          0.044        0.906
  YS02001619           JUNCTION        1.53          0.590        0.020
  YS02001629           JUNCTION        1.59          0.275        0.195
  YS02001641           JUNCTION        5.31          0.707        0.393
  YS02001644           JUNCTION        5.32          0.766        0.154
  YS02001652           JUNCTION        4.21          1.094        0.036
  YS02001655           JUNCTION        2.54          1.200        0.000
  YS02001658           JUNCTION        0.01          0.107        1.193
  YS02001622           JUNCTION        1.99          0.490        0.130
  YS02001633           JUNCTION        5.07          0.695        0.365
  YS02001649           JUNCTION        5.50          0.872        0.178
  YS02001757           JUNCTION        5.64          0.953        0.257
  YS02001625           JUNCTION        4.40          0.618        0.162
  YS02163301           JUNCTION        4.80          0.671        0.359
  YS02163601           JUNCTION        5.48          0.744        0.336
  YS02164001           JUNCTION        5.17          0.688        0.412
  YS02001647           JUNCTION        4.32          0.641        0.259
  YS02006553           JUNCTION        0.37          0.052        1.138
  YS02001783           JUNCTION        0.17          0.671        0.929
  YS02001784           JUNCTION        0.27          0.581        0.909
  YS02001786           JUNCTION        0.19          0.274        1.156
  YS02001788           JUNCTION        0.13          0.362        1.118
  YS02001790           JUNCTION        1.55          0.638        0.519
  YS02001791           JUNCTION        1.68          0.794        1.126
  YS02001793           JUNCTION        1.89          1.701        0.899
  
  
  *********************
  Node Flooding Summary
  *********************
  
  Flooding refers to all water that overflows a node, whether it ponds or not.
  --------------------------------------------------------------------------
                                                             Total   Maximum
                                 Maximum   Time of Max       Flood    Ponded
                        Hours       Rate    Occurrence      Volume     Depth
  Node                 Flooded       LPS   days hr:min    10^6 ltr    Meters
  --------------------------------------------------------------------------
  YS02001751              0.01    127.53      0  03:22       0.000     0.000
  YS02001655              0.01    222.83      0  03:04       0.000     0.000
  JK-storage              1.23    354.52      0  02:57       0.677     0.000
  XR-storage              5.07    252.93      0  03:01       2.097     0.000
  
  
  **********************
  Storage Volume Summary
  **********************
  
  --------------------------------------------------------------------------------------------------
                         Average     Avg  Evap Exfil       Maximum     Max    Time of Max    Maximum
                          Volume    Pcnt  Pcnt  Pcnt        Volume    Pcnt     Occurrence    Outflow
  Storage Unit           1000 m3    Full  Loss  Loss       1000 m3    Full    days hr:min        LPS
  --------------------------------------------------------------------------------------------------
  JK-storage               0.128      44     0     0         0.291     100       0  02:56     385.04
  CC-storage               1.653      11     0     0         2.741      17       0  04:46     400.00
  XR-storage               0.855      92     0     0         0.926     100       0  02:45     380.00
  
  
  ***********************
  Outfall Loading Summary
  ***********************
  
  -----------------------------------------------------------
                         Flow       Avg       Max       Total
                         Freq      Flow      Flow      Volume
  Outfall Node           Pcnt       LPS       LPS    10^6 ltr
  -----------------------------------------------------------
  WSC                   99.99    611.05    775.25      15.302
  3                     94.90    161.28    250.55       3.228
  4                     90.81    107.45    164.75       2.197
  5                      0.00      0.00      0.00       0.000
  -----------------------------------------------------------
  System                71.43    879.77   1175.13      20.726
  
  
  ********************
  Link Flow Summary
  ********************
  
  -----------------------------------------------------------------------------
                                 Maximum  Time of Max   Maximum    Max/    Max/
                                  |Flow|   Occurrence   |Veloc|    Full    Full
  Link                 Type          LPS  days hr:min     m/sec    Flow   Depth
  -----------------------------------------------------------------------------
  WS02003066WSF200     CONDUIT    559.75     0  02:32      2.76    0.09    0.24
  WS02006287WS02006284 CONDUIT    204.71     0  02:27      1.62    0.09    0.22
  WS02006284WS02006280 CONDUIT    204.81     0  02:27      1.86    0.09    0.20
  WS02006280WS02006229 CONDUIT    204.81     0  02:27      2.99    0.04    0.14
  WS02006229WS02006228 CONDUIT    552.37     0  02:27      1.10    1.83    1.00
  WS02006256WS02006235 CONDUIT    166.25     0  00:01      2.58    1.76    1.00
  WS02006253WS02006251 CONDUIT     41.70     0  02:26      0.43    0.13    0.96
  WS02006252WS02006251 CONDUIT    400.45     0  05:56      3.19    1.47    1.00
  WS02006251WS02006249 CONDUIT    441.76     0  02:27      1.23    1.27    0.93
  WS02006249WS02006248 CONDUIT    370.62     0  02:02      1.20    2.03    0.88
  WS02006248WS02006247 CONDUIT    365.39     0  02:02      1.17    0.80    0.93
  WS02006247WS02006245 CONDUIT    359.26     0  02:02      1.14    2.85    0.97
  WS02006245WS02006243 CONDUIT    351.65     0  02:02      1.18    1.04    0.99
  WS02006243WS02006242 CONDUIT    338.63     0  02:03      1.02    0.72    1.00
  WS02006242WS02006240 CONDUIT    324.72     0  02:03      0.91    1.29    1.00
  WS02006240WS02006239 CONDUIT    316.38     0  07:50      0.89    1.00    1.00
  WS02006239WS02006238 CONDUIT    316.39     0  07:50      0.82    1.01    1.00
  WS02006238WS02006235 CONDUIT    316.40     0  07:50      1.25    0.71    1.00
  WS02006235WS02006234 CONDUIT    386.84     0  05:31      1.03    4.08    1.00
  WS02006234WS02006232 CONDUIT    386.84     0  05:31      1.13    0.78    1.00
  WS02006232WS02006231 CONDUIT    386.84     0  05:31      1.05    0.81    1.00
  WS02006231WS02006230 CONDUIT    386.85     0  05:31      1.25    5.87    0.97
  WS02006230WS02006229 CONDUIT    397.14     0  05:31      1.03    8.84    1.00
  WS02006228WS02006109 CONDUIT    552.37     0  02:27      1.10    2.41    1.00
  WS02006116WS02004401 CONDUIT    560.95     0  02:27      0.78    0.77    0.86
  WS02006115WS02006116 CONDUIT    563.41     0  02:27      0.88    0.72    0.78
  WS02006113WS02006111 CONDUIT    576.37     0  02:28      2.49    0.69    0.47
  WS02006112WS02006115 CONDUIT    576.74     0  02:28      0.79    0.34    0.88
  WS02006111WS02006112 CONDUIT    559.60     0  02:28      1.55    0.27    0.68
  WS02006110WS02006113 CONDUIT    554.12     0  02:27      1.30    0.50    0.79
  WS02006109WS02006110 CONDUIT    553.57     0  02:27      1.10    1.06    1.00
  WS02004411WS02004412 CONDUIT    559.78     0  02:31      0.94    0.80    0.71
  WS02004401WS02004402 CONDUIT    560.29     0  02:27      0.77    0.67    0.88
  WS02004413WS02003067 CONDUIT    559.75     0  02:32      1.14    0.24    0.60
  WS02004412WS02004413 CONDUIT    559.76     0  02:32      0.84    0.37    0.79
  WS02004410WS02004411 CONDUIT    559.81     0  02:31      0.95    0.76    0.70
  WS02004409WS02004410 CONDUIT    559.88     0  02:30      0.97    0.72    0.69
  WS02004407WS02004409 CONDUIT    560.01     0  02:30      1.47    0.20    0.49
  WS02004406WS02004407 CONDUIT    560.04     0  02:30      1.06    0.25    0.64
  WS02004405WS02004406 CONDUIT    560.21     0  02:29      0.72    1.11    0.97
  WS02004404WS02004405 CONDUIT    560.15     0  02:29      0.84    5.49    0.97
  WS02004403WS02004404 CONDUIT    560.10     0  02:30      0.74    0.40    0.94
  WS02004402WS02004403 CONDUIT    560.05     0  02:29      0.75    0.80    0.90
  WS02004139WS02001211 CONDUIT    380.32     0  00:59      0.69    0.48    0.57
  WS02004138WS02004139 CONDUIT    380.09     0  00:40      2.94    0.08    0.42
  WS02003067WS02003066 CONDUIT    559.75     0  02:32      1.23    0.18    0.42
  WS02001213WS02003059 CONDUIT    387.69     0  00:57      0.68    0.64    0.68
  WS02001212WS02001213 CONDUIT    387.67     0  01:00      1.32    0.60    0.40
  WS02001211WS02001212 CONDUIT    387.67     0  01:00      0.78    0.30    0.60
  WS02003072WS02003073 CONDUIT    773.43     0  02:35      1.61    1.67    0.44
  WS02003069WS02003072 CONDUIT    773.43     0  02:34      1.52    0.37    0.46
  WS02003060WS02003069 CONDUIT    773.13     0  02:34      1.78    0.30    0.41
  WS02003059WS02003060 CONDUIT    387.68     0  00:58      0.95    0.25    0.59
  HS02004901HS02004770 CONDUIT      9.22     0  02:24      0.05    0.03    0.31
  HS02004876HS02004881 CONDUIT     36.81     0  02:26      0.59    0.39    0.09
  HS02004870HS02004876 CONDUIT     29.40     0  02:26      0.41    0.02    0.10
  HS02004842HS02004848 CONDUIT      6.79     0  02:52      0.04    0.00    0.28
  HS02004837HS02004842 CONDUIT      7.01     0  03:02      0.41    0.00    0.29
  HS02004830HS02004837 CONDUIT     25.65     0  02:26      0.46    0.03    0.08
  HS02004824HS02004830 CONDUIT     25.79     0  02:27      0.49    0.03    0.08
  HS02004817HS02004824 CONDUIT     44.91     0  02:27      0.17    0.02    0.41
  HS02004770HS02004777 CONDUIT     48.37     0  02:24      0.21    0.09    0.33
  HS02004799HS02004480 CONDUIT    123.11     0  02:25      0.58    0.16    0.31
  HS02004792HS02004799 CONDUIT    112.10     0  02:25      0.66    0.07    0.24
  HS02004788HS02004792 CONDUIT     65.23     0  02:26      0.81    0.04    0.11
  HS02004785HS02004788 CONDUIT     48.34     0  02:26      0.49    0.36    0.14
  HS02004777HS02004785 CONDUIT     48.24     0  02:25      0.26    0.06    0.26
  HS02004480HS02004478 CONDUIT    146.06     0  02:26      0.94    0.62    0.22
  HS02004479HS02004480 CONDUIT     23.22     0  02:27      0.27    0.02    0.30
  HS02004862HS02004870 CONDUIT     22.03     0  02:27      0.49    0.02    0.06
  HS02004848HS02004852 CONDUIT      9.33     0  02:26      0.33    0.01    0.04
  HS02004856HS02004862 CONDUIT     14.82     0  02:26      0.35    0.01    0.06
  HS02004852HS02004856 CONDUIT      9.30     0  02:27      0.14    0.01    0.10
  HS02004802HS02004478 CONDUIT     59.19     0  02:29      0.33    0.05    0.26
  HS02004478WS02006287 CONDUIT    204.70     0  02:27      1.31    0.06    0.17
  HS02004817HS02004807 CONDUIT     45.68     0  02:29      0.13    0.03    0.52
  HS02004807HS02004802 CONDUIT     59.00     0  02:28      0.28    0.11    0.31
  YS02001759YS02001757 CONDUIT    381.76     0  02:57      0.49    0.27    1.00
  YS02001762YS02001759 CONDUIT    204.21     0  02:57      0.26    0.24    1.00
  YS02001765YS02001762 CONDUIT    202.39     0  02:57      0.28    0.19    1.00
  YS02001770YS02001767 CONDUIT    201.64     0  02:57      0.26    0.80    1.00
  YS02001774YS02001770 CONDUIT     36.31     0  06:49      0.22    0.02    1.00
  YS02001779YS02001774 CONDUIT     35.42     0  06:49      0.05    0.02    1.00
  YS02001649YS02001757 CONDUIT    641.24     0  03:02      0.82    0.39    1.00
  YS02001767YS02001765 CONDUIT    202.50     0  02:57      0.30    0.25    1.00
  YS02006561YS02001783 CONDUIT    651.99     0  02:57      2.09    0.34    0.76
  YS02001783YS02001784 CONDUIT    652.05     0  02:57      1.52    0.90    1.00
  YS02001784YS02001785 CONDUIT    653.61     0  02:57      1.63    1.52    1.00
  YS02001788YS02001790 CONDUIT    654.22     0  02:57      2.16    0.48    1.00
  YS02001790YS02001791 CONDUIT    654.45     0  02:57      2.56    0.71    1.00
  YS02001791YS02001793 CONDUIT    690.93     0  02:51      5.20    0.30    1.00
  YS02001910YS02001907 CONDUIT    224.01     0  02:57      0.49    0.13    0.91
  YS02001786YS02001788 CONDUIT    653.20     0  02:57      2.11    1.26    1.00
  YS02001915YS02001910 CONDUIT    225.54     0  02:56      0.55    0.11    0.71
  YS02001918YS02001915 CONDUIT     80.50     0  03:10      0.44    0.04    0.43
  YS02001923YS02001920 CONDUIT     64.77     0  03:02      0.57    0.03    0.22
  YS02001926YS02001923 CONDUIT     64.74     0  03:02      0.66    0.09    0.18
  YS02001929YS02001926 CONDUIT     64.92     0  03:01      0.71    0.03    0.17
  YS02001920YS02001918 CONDUIT     73.48     0  03:00      0.57    0.07    0.29
  YS02001629YS02163301 CONDUIT    168.28     0  02:42      0.21    0.21    1.00
  YS02001619YS02001622 CONDUIT    170.46     0  03:01      0.57    0.25    1.00
  YS02001622YS02001625 CONDUIT    227.07     0  03:00      0.31    0.12    1.00
  YS02001625YS02001629 CONDUIT    226.79     0  03:00      0.29    0.11    1.00
  YS02163301YS02001633 CONDUIT    169.65     0  02:42      0.22    0.16    1.00
  YS02163601YS02164001 CONDUIT    289.63     0  02:42      0.37    0.26    1.00
  YS02164001YS02001641 CONDUIT    289.62     0  02:42      0.37    0.40    1.00
  YS02001641YS02001644 CONDUIT    289.58     0  02:42      0.37    0.94    1.00
  YS02001647YS02001649 CONDUIT    422.46     0  03:00      0.54    0.22    1.00
  YS02006553YS02006556 CONDUIT    441.03     0  03:02      0.56    0.38    0.99
  YS02006556YS02006558 CONDUIT    469.05     0  03:02      0.60    0.37    1.00
  YSB6556YSB1171       CONDUIT     13.19     0  02:28      0.06    0.01    0.57
  YS02001907YS02006553 CONDUIT    445.61     0  03:02      0.50    0.52    1.00
  YS02006558YS02006561 CONDUIT    676.22     0  03:00      3.17    1.49    0.78
  YS02001633YS02163601 CONDUIT    289.44     0  02:42      0.37    0.30    1.00
  YS02001644YS02001647 CONDUIT    419.66     0  03:00      0.53    0.25    1.00
  YS02001745YS02001748 CONDUIT    404.05     0  04:13      1.42    0.16    0.68
  YS02001748YS02001751 CONDUIT    415.21     0  03:15      1.00    0.21    1.00
  YS02001751YS02001754 CONDUIT    228.56     0  03:04      0.86    0.11    1.00
  YS02001754YS02001757 CONDUIT    228.64     0  03:04      0.33    0.09    1.00
  YS02001882YS02001884 CONDUIT     18.60     0  02:58      0.09    0.02    0.65
  YS02001884YS02001887 CONDUIT     22.78     0  02:59      0.05    0.03    0.74
  YS02001890YS02001895 CONDUIT    241.52     0  03:03      0.41    0.11    0.71
  YS02001895YS02001898 CONDUIT    241.75     0  02:57      0.54    0.42    0.58
  YS02001898YS02001901 CONDUIT    245.66     0  02:56      0.46    0.16    0.66
  YS02001901YS02001904 CONDUIT    250.04     0  02:57      0.44    0.39    0.71
  YS02001904YS02001907 CONDUIT    257.22     0  02:57      0.37    0.09    0.85
  YS02001887YS02001890 CONDUIT    238.69     0  02:57      0.36    0.41    0.80
  YS02001652YS02001649 CONDUIT    228.82     0  02:55      0.56    0.11    1.00
  YS02001655YS02001652 CONDUIT    231.31     0  02:55      0.91    0.11    1.00
  YS02001658YS02001655 CONDUIT    375.06     0  03:03      1.15    0.16    1.00
  YS02001661YS02001658 CONDUIT    415.56     0  03:03      1.49    0.16    0.72
  YS02001664YS02001661 CONDUIT    163.94     0  03:01      1.44    0.05    0.38
  YSB1154YSB6556       CONDUIT     13.14     0  02:25      0.16    0.02    0.46
  YSB1174YSB1171       CONDUIT     10.08     0  02:23      0.04    0.02    0.57
  YSB1171HS02004479    CONDUIT     23.09     0  02:27      0.54    0.02    0.44
  HS02004881HS02006253 CONDUIT     40.75     0  02:26      1.47    0.01    0.27
  YS02001793JiankangQianchi CONDUIT    974.92     0  02:50     13.02    0.08    1.00
  YS02001757CaochengTiaoxuchi CONDUIT   1108.10     0  03:02      2.24    0.49    0.99
  WSF200WS02003060     CONDUIT    559.75     0  02:32      1.77    0.12    0.32
  1                    CONDUIT    775.25     0  02:36      3.10    0.27    0.35
  2                    CONDUIT    164.75     0  02:28      5.55    0.39    0.44
  3                    CONDUIT    250.55     0  00:00      8.26    0.40    0.46
  4                    CONDUIT      0.00     0  00:00      0.00    0.00    0.00
  CC-Pump-1            PUMP       200.00     0  02:01              1.00
  CC-Pump-2            PUMP       200.00     0  02:01              1.00
  JK-Pump-1            PUMP         1.34     0  00:30              0.00
  JK-Pump-2            PUMP       300.00     0  00:00              1.00
  XR-Pump-1            PUMP        95.00     0  00:00              1.00
  XR-Pump-2            PUMP        95.00     0  00:40              1.00
  XR-Pump-3            PUMP        95.00     0  00:40              1.00
  XR-Pump-4            PUMP        95.00     0  00:00              1.00
  
  
  ***************************
  Flow Classification Summary
  ***************************
  
  -------------------------------------------------------------------------------------
                      Adjusted    ---------- Fraction of Time in Flow Class ---------- 
                       /Actual         Up    Down  Sub   Sup   Up    Down  Norm  Inlet 
  Conduit               Length    Dry  Dry   Dry   Crit  Crit  Crit  Crit  Ltd   Ctrl  
  -------------------------------------------------------------------------------------
  WS02003066WSF200        1.00   0.05  0.02  0.00  0.00  0.93  0.00  0.00  0.62  0.00
  WS02006287WS02006284    1.00   0.04  0.01  0.00  0.58  0.36  0.00  0.00  0.77  0.00
  WS02006284WS02006280    1.00   0.05  0.00  0.00  0.00  0.00  0.00  0.95  0.00  0.00
  WS02006280WS02006229    1.00   0.05  0.00  0.00  0.00  0.00  0.00  0.95  0.00  0.00
  WS02006229WS02006228    1.00   0.00  0.00  0.00  0.99  0.00  0.00  0.01  0.00  0.00
  WS02006256WS02006235    1.00   0.00  0.00  0.00  1.00  0.00  0.00  0.00  0.00  0.00
  WS02006253WS02006251    1.00   0.03  0.01  0.00  0.95  0.00  0.00  0.00  0.00  0.00
  WS02006252WS02006251    1.00   0.08  0.00  0.00  0.00  0.00  0.92  0.00  0.00  0.00
  WS02006251WS02006249    1.00   0.00  0.00  0.00  1.00  0.00  0.00  0.00  0.23  0.00
  WS02006249WS02006248    1.00   0.00  0.02  0.00  0.92  0.00  0.06  0.00  0.00  0.00
  WS02006248WS02006247    1.00   0.03  0.00  0.00  0.97  0.00  0.00  0.00  0.11  0.00
  WS02006247WS02006245    1.00   0.02  0.00  0.00  0.98  0.00  0.00  0.00  0.00  0.00
  WS02006245WS02006243    1.00   0.01  0.00  0.00  0.94  0.00  0.00  0.04  0.01  0.00
  WS02006243WS02006242    1.00   0.01  0.00  0.00  0.99  0.00  0.00  0.00  0.21  0.00
  WS02006242WS02006240    1.00   0.00  0.00  0.00  1.00  0.00  0.00  0.00  0.00  0.00
  WS02006240WS02006239    1.00   0.00  0.00  0.00  0.96  0.00  0.00  0.03  0.01  0.00
  WS02006239WS02006238    1.00   0.00  0.00  0.00  1.00  0.00  0.00  0.00  0.02  0.00
  WS02006238WS02006235    1.00   0.00  0.00  0.00  1.00  0.00  0.00  0.00  0.00  0.00
  WS02006235WS02006234    1.00   0.00  0.00  0.00  0.96  0.00  0.04  0.00  0.00  0.00
  WS02006234WS02006232    1.00   0.00  0.00  0.00  1.00  0.00  0.00  0.00  0.03  0.00
  WS02006232WS02006231    1.00   0.00  0.00  0.00  0.99  0.00  0.00  0.00  0.00  0.00
  WS02006231WS02006230    1.00   0.00  0.00  0.00  0.92  0.00  0.07  0.00  0.00  0.00
  WS02006230WS02006229    1.00   0.00  0.00  0.00  0.98  0.00  0.00  0.02  0.01  0.00
  WS02006228WS02006109    1.00   0.00  0.00  0.00  1.00  0.00  0.00  0.00  0.00  0.00
  WS02006116WS02004401    1.00   0.03  0.00  0.00  0.97  0.00  0.00  0.00  0.00  0.00
  WS02006115WS02006116    1.00   0.03  0.00  0.00  0.97  0.00  0.00  0.01  0.00  0.00
  WS02006113WS02006111    1.00   0.02  0.00  0.00  0.00  0.98  0.00  0.00  0.10  0.00
  WS02006112WS02006115    1.00   0.02  0.00  0.00  0.97  0.00  0.00  0.00  0.00  0.00
  WS02006111WS02006112    1.00   0.02  0.00  0.00  0.97  0.00  0.00  0.00  0.98  0.00
  WS02006110WS02006113    1.00   0.01  0.01  0.00  0.98  0.00  0.00  0.00  0.00  0.00
  WS02006109WS02006110    1.00   0.00  0.01  0.00  0.98  0.00  0.01  0.00  0.00  0.00
  WS02004411WS02004412    1.00   0.04  0.00  0.00  0.96  0.00  0.00  0.00  0.00  0.00
  WS02004401WS02004402    1.00   0.03  0.00  0.00  0.97  0.00  0.00  0.00  0.00  0.00
  WS02004413WS02003067    1.00   0.04  0.01  0.00  0.00  0.00  0.94  0.00  0.00  0.00
  WS02004412WS02004413    1.00   0.04  0.00  0.00  0.96  0.00  0.00  0.00  0.03  0.00
  WS02004410WS02004411    1.00   0.04  0.00  0.00  0.96  0.00  0.00  0.00  0.03  0.00
  WS02004409WS02004410    1.00   0.04  0.00  0.00  0.96  0.00  0.00  0.00  0.03  0.00
  WS02004407WS02004409    1.00   0.04  0.00  0.00  0.96  0.00  0.00  0.00  0.89  0.00
  WS02004406WS02004407    1.00   0.00  0.04  0.00  0.96  0.00  0.00  0.00  0.00  0.00
  WS02004405WS02004406    1.00   0.00  0.00  0.00  1.00  0.00  0.00  0.00  0.01  0.00
  WS02004404WS02004405    1.00   0.00  0.00  0.00  1.00  0.00  0.00  0.00  0.00  0.00
  WS02004403WS02004404    1.00   0.00  0.03  0.00  0.97  0.00  0.00  0.00  0.01  0.00
  WS02004402WS02004403    1.00   0.03  0.00  0.00  0.97  0.00  0.00  0.00  0.00  0.00
  WS02004139WS02001211    1.00   0.00  0.00  0.00  0.99  0.00  0.01  0.00  0.00  0.00
  WS02004138WS02004139    1.00   0.00  0.00  0.00  0.99  0.01  0.00  0.00  1.00  0.00
  WS02003067WS02003066    1.00   0.06  0.01  0.00  0.94  0.00  0.00  0.00  0.00  0.00
  WS02001213WS02003059    1.00   0.00  0.00  0.00  0.99  0.00  0.00  0.00  0.00  0.00
  WS02001212WS02001213    1.00   0.00  0.00  0.00  0.89  0.00  0.10  0.00  0.00  0.00
  WS02001211WS02001212    1.00   0.00  0.00  0.00  1.00  0.00  0.00  0.00  0.00  0.00
  WS02003072WS02003073    1.00   0.00  0.00  0.00  0.00  0.00  0.00  1.00  0.00  0.00
  WS02003069WS02003072    1.00   0.00  0.00  0.00  0.99  0.01  0.00  0.00  0.18  0.00
  WS02003060WS02003069    1.00   0.00  0.00  0.00  0.99  0.01  0.00  0.00  0.10  0.00
  WS02003059WS02003060    1.00   0.00  0.00  0.00  1.00  0.00  0.00  0.00  0.01  0.00
  HS02004901HS02004770    1.00   0.05  0.00  0.00  0.95  0.00  0.00  0.00  0.00  0.00
  HS02004876HS02004881    1.00   0.02  0.00  0.00  0.98  0.00  0.00  0.00  0.00  0.00
  HS02004870HS02004876    1.00   0.01  0.00  0.00  0.99  0.00  0.00  0.00  0.95  0.00
  HS02004842HS02004848    1.00   0.00  0.05  0.00  0.95  0.00  0.00  0.00  0.61  0.00
  HS02004837HS02004842    1.00   0.00  0.00  0.00  0.99  0.01  0.00  0.00  0.11  0.00
  HS02004830HS02004837    1.00   0.00  0.00  0.00  1.00  0.00  0.00  0.00  0.99  0.00
  HS02004824HS02004830    1.00   0.00  0.00  0.00  1.00  0.00  0.00  0.00  0.00  0.00
  HS02004817HS02004824    1.00   0.00  0.00  0.00  1.00  0.00  0.00  0.00  1.00  0.00
  HS02004770HS02004777    1.00   0.00  0.05  0.00  0.95  0.00  0.00  0.00  0.03  0.00
  HS02004799HS02004480    1.00   0.00  0.03  0.00  0.95  0.00  0.02  0.00  0.00  0.00
  HS02004792HS02004799    1.00   0.00  0.00  0.00  0.98  0.02  0.00  0.00  0.98  0.00
  HS02004788HS02004792    1.00   0.00  0.00  0.00  0.99  0.01  0.00  0.00  0.98  0.00
  HS02004785HS02004788    1.00   0.00  0.00  0.00  1.00  0.00  0.00  0.00  0.00  0.00
  HS02004777HS02004785    1.00   0.00  0.00  0.00  1.00  0.00  0.00  0.00  0.13  0.00
  HS02004480HS02004478    1.00   0.05  0.00  0.00  0.64  0.00  0.00  0.31  0.00  0.00
  HS02004479HS02004480    1.00   0.03  0.00  0.00  0.97  0.00  0.00  0.00  0.12  0.00
  HS02004862HS02004870    1.00   0.00  0.00  0.00  1.00  0.00  0.00  0.00  0.06  0.00
  HS02004848HS02004852    1.00   0.05  0.00  0.00  0.95  0.00  0.00  0.00  0.69  0.00
  HS02004856HS02004862    1.00   0.00  0.06  0.00  0.94  0.00  0.00  0.00  0.81  0.00
  HS02004852HS02004856    1.00   0.05  0.00  0.00  0.95  0.00  0.00  0.00  0.86  0.00
  HS02004802HS02004478    1.00   0.05  0.00  0.00  0.95  0.00  0.00  0.00  0.03  0.00
  HS02004478WS02006287    1.00   0.05  0.00  0.00  0.73  0.21  0.00  0.00  0.77  0.00
  HS02004817HS02004807    1.00   0.00  0.05  0.00  0.95  0.00  0.00  0.00  0.01  0.00
  HS02004807HS02004802    1.00   0.05  0.00  0.00  0.95  0.00  0.00  0.00  0.00  0.00
  YS02001759YS02001757    1.00   0.00  0.00  0.00  1.00  0.00  0.00  0.00  0.16  0.00
  YS02001762YS02001759    1.00   0.00  0.00  0.00  1.00  0.00  0.00  0.00  0.03  0.00
  YS02001765YS02001762    1.00   0.00  0.00  0.00  1.00  0.00  0.00  0.00  0.15  0.00
  YS02001770YS02001767    1.00   0.00  0.00  0.00  1.00  0.00  0.00  0.00  0.00  0.00
  YS02001774YS02001770    1.00   0.00  0.05  0.00  0.95  0.00  0.00  0.00  0.03  0.00
  YS02001779YS02001774    1.00   0.00  0.00  0.00  1.00  0.00  0.00  0.00  0.21  0.00
  YS02001649YS02001757    1.00   0.00  0.00  0.00  1.00  0.00  0.00  0.00  0.16  0.00
  YS02001767YS02001765    1.00   0.00  0.00  0.00  1.00  0.00  0.00  0.00  0.01  0.00
  YS02006561YS02001783    1.00   0.06  0.00  0.00  0.27  0.67  0.00  0.00  0.69  0.00
  YS02001783YS02001784    1.00   0.00  0.06  0.00  0.94  0.00  0.00  0.00  0.01  0.00
  YS02001784YS02001785    1.00   0.00  0.00  0.00  1.00  0.00  0.00  0.00  0.19  0.00
  YS02001788YS02001790    1.00   0.00  0.00  0.00  0.39  0.61  0.00  0.00  0.61  0.00
  YS02001790YS02001791    1.00   0.00  0.00  0.00  0.35  0.65  0.00  0.00  0.50  0.00
  YS02001791YS02001793    1.00   0.00  0.00  0.00  0.37  0.63  0.00  0.00  0.02  0.00
  YS02001910YS02001907    1.00   0.00  0.00  0.00  0.97  0.00  0.00  0.03  0.12  0.00
  YS02001786YS02001788    1.00   0.00  0.00  0.00  0.36  0.64  0.00  0.00  0.00  0.00
  YS02001915YS02001910    1.00   0.00  0.00  0.00  0.98  0.02  0.00  0.00  0.18  0.00
  YS02001918YS02001915    1.00   0.00  0.01  0.00  0.98  0.02  0.00  0.00  0.68  0.00
  YS02001923YS02001920    1.00   0.00  0.00  0.00  1.00  0.00  0.00  0.00  1.00  0.00
  YS02001926YS02001923    1.00   0.00  0.04  0.00  0.00  0.00  0.96  0.00  0.00  0.00
  YS02001929YS02001926    1.00   0.00  0.05  0.00  0.95  0.00  0.00  0.00  0.87  0.00
  YS02001920YS02001918    1.00   0.00  0.01  0.00  0.99  0.00  0.00  0.00  0.00  0.00
  YS02001629YS02163301    1.00   0.05  0.00  0.00  0.95  0.00  0.00  0.00  0.00  0.00
  YS02001619YS02001622    1.00   0.05  0.00  0.00  0.95  0.00  0.00  0.00  0.00  0.00
  YS02001622YS02001625    1.00   0.05  0.00  0.00  0.95  0.00  0.00  0.00  0.07  0.00
  YS02001625YS02001629    1.00   0.05  0.02  0.00  0.92  0.00  0.01  0.00  0.00  0.00
  YS02163301YS02001633    1.00   0.00  0.05  0.00  0.95  0.00  0.00  0.00  0.00  0.00
  YS02163601YS02164001    1.00   0.00  0.04  0.00  0.96  0.00  0.00  0.00  0.00  0.00
  YS02164001YS02001641    1.00   0.01  0.03  0.00  0.96  0.00  0.00  0.00  0.06  0.00
  YS02001641YS02001644    1.00   0.00  0.01  0.00  0.99  0.00  0.00  0.00  0.00  0.00
  YS02001647YS02001649    1.00   0.00  0.06  0.00  0.94  0.00  0.00  0.00  0.01  0.00
  YS02006553YS02006556    1.00   0.02  0.00  0.00  0.98  0.00  0.00  0.00  0.03  0.00
  YS02006556YS02006558    1.00   0.00  0.00  0.00  1.00  0.00  0.00  0.00  0.00  0.00
  YSB6556YSB1171          1.00   0.03  0.02  0.00  0.95  0.00  0.00  0.00  0.00  0.00
  YS02001907YS02006553    1.00   0.00  0.02  0.00  0.97  0.00  0.00  0.00  0.00  0.00
  YS02006558YS02006561    1.00   0.06  0.00  0.00  0.00  0.94  0.00  0.00  0.60  0.00
  YS02001633YS02163601    1.00   0.00  0.01  0.00  0.99  0.00  0.00  0.00  0.15  0.00
  YS02001644YS02001647    1.00   0.00  0.06  0.00  0.94  0.00  0.00  0.00  0.00  0.00
  YS02001745YS02001748    1.00   0.00  0.00  0.00  0.86  0.02  0.00  0.12  0.18  0.00
  YS02001748YS02001751    1.00   0.00  0.00  0.00  0.97  0.03  0.00  0.00  0.16  0.00
  YS02001751YS02001754    1.00   0.00  0.00  0.00  0.93  0.00  0.00  0.07  0.02  0.00
  YS02001754YS02001757    1.00   0.00  0.00  0.00  0.99  0.01  0.00  0.00  0.20  0.00
  YS02001882YS02001884    1.00   0.05  0.00  0.00  0.95  0.00  0.00  0.00  0.00  0.00
  YS02001884YS02001887    1.00   0.03  0.01  0.00  0.96  0.00  0.00  0.00  0.00  0.00
  YS02001890YS02001895    1.00   0.00  0.05  0.00  0.95  0.00  0.00  0.00  0.00  0.00
  YS02001895YS02001898    1.00   0.05  0.00  0.00  0.94  0.00  0.01  0.00  0.00  0.00
  YS02001898YS02001901    1.00   0.05  0.00  0.00  0.95  0.00  0.00  0.00  0.03  0.00
  YS02001901YS02001904    1.00   0.05  0.00  0.00  0.95  0.00  0.00  0.00  0.00  0.00
  YS02001904YS02001907    1.00   0.00  0.05  0.00  0.95  0.00  0.00  0.00  0.00  0.00
  YS02001887YS02001890    1.00   0.00  0.00  0.00  0.97  0.00  0.03  0.00  0.00  0.00
  YS02001652YS02001649    1.00   0.00  0.00  0.00  1.00  0.00  0.00  0.00  0.18  0.00
  YS02001655YS02001652    1.00   0.00  0.00  0.00  0.93  0.00  0.00  0.07  0.02  0.00
  YS02001658YS02001655    1.00   0.00  0.05  0.00  0.92  0.03  0.00  0.00  0.12  0.00
  YS02001661YS02001658    1.00   0.05  0.00  0.00  0.86  0.09  0.00  0.00  0.25  0.00
  YS02001664YS02001661    1.00   0.05  0.00  0.00  0.80  0.15  0.00  0.00  0.82  0.00
  YSB1154YSB6556          1.00   0.05  0.00  0.00  0.95  0.00  0.00  0.00  0.02  0.00
  YSB1174YSB1171          1.00   0.03  0.01  0.00  0.96  0.00  0.00  0.00  0.00  0.00
  YSB1171HS02004479       1.00   0.03  0.00  0.00  0.97  0.00  0.00  0.00  0.10  0.00
  HS02004881HS02006253    1.00   0.03  0.00  0.00  0.92  0.00  0.00  0.05  0.75  0.00
  YS02001793JiankangQianchi    1.00   0.00  0.00  0.00  0.56  0.44  0.00  0.00  0.15  0.00
  YS02001757CaochengTiaoxuchi    1.00   0.00  0.08  0.00  0.91  0.02  0.00  0.00  0.00  0.00
  WSF200WS02003060        1.00   0.00  0.05  0.00  0.07  0.89  0.00  0.00  0.13  0.00
  1                       1.00   0.00  0.00  0.00  0.00  1.00  0.00  0.00  0.10  0.00
  2                       1.00   0.09  0.00  0.00  0.00  0.91  0.00  0.00  0.00  0.00
  3                       1.00   0.05  0.00  0.00  0.00  0.95  0.00  0.00  0.22  0.00
  4                       1.00   1.00  0.00  0.00  0.00  0.00  0.00  0.00  0.00  0.00
  
  
  *************************
  Conduit Surcharge Summary
  *************************
  
  ----------------------------------------------------------------------------
                                                           Hours        Hours 
                         --------- Hours Full --------   Above Full   Capacity
  Conduit                Both Ends  Upstream  Dnstream   Normal Flow   Limited
  ----------------------------------------------------------------------------
  WS02006229WS02006228        5.37      5.79      5.37      5.84         5.37
  WS02006256WS02006235        6.08      6.09      7.66      0.38         0.01
  WS02006252WS02006251        5.83      5.83      5.86      5.86         0.01
  WS02006251WS02006249        0.01      0.01      0.01      5.83         0.01
  WS02006249WS02006248        0.01      0.01      0.01      5.86         0.01
  WS02006247WS02006245        0.01      0.01      0.01      5.86         0.01
  WS02006245WS02006243        0.01      0.01      0.16      0.04         0.01
  WS02006243WS02006242        0.88      0.88      5.76      0.01         0.01
  WS02006242WS02006240        1.28      1.28      5.76      5.81         0.01
  WS02006240WS02006239        1.59      1.59      1.87      0.01         0.01
  WS02006239WS02006238        5.76      5.76      5.76      1.95         1.98
  WS02006238WS02006235        5.76      5.76      5.77      0.01         0.01
  WS02006235WS02006234        1.19      1.19      4.39      6.10         0.01
  WS02006234WS02006232        1.58      1.58      5.77      0.01         0.01
  WS02006232WS02006231        0.01      0.01      5.77      0.01         0.01
  WS02006231WS02006230        0.01      0.01      0.29      6.11         0.01
  WS02006230WS02006229        5.80      5.80      5.80      6.22         5.80
  WS02006228WS02006109        5.78      5.79      5.78      5.94         5.78
  WS02006112WS02006115        0.01      0.01      1.14      0.01         0.01
  WS02006111WS02006112        0.01      0.01      5.80      0.01         0.01
  WS02006110WS02006113        0.01      0.01      5.78      0.01         0.01
  WS02006109WS02006110        0.99      0.99      5.79      1.00         0.01
  WS02004405WS02004406        0.01      0.01      0.01      1.05         0.01
  WS02004404WS02004405        0.01      0.01      0.01      5.99         0.01
  WS02003072WS02003073        0.01      0.01      0.01      5.70         0.01
  YS02001759YS02001757        5.53      5.53      5.64      0.01         0.01
  YS02001762YS02001759        5.46      5.46      5.53      0.01         0.01
  YS02001765YS02001762        5.16      5.16      5.46      0.01         0.01
  YS02001770YS02001767        4.89      4.89      4.92      0.01         0.80
  YS02001774YS02001770        4.77      4.77      5.38      0.01         0.01
  YS02001779YS02001774        3.87      3.87      5.38      0.01         0.01
  YS02001649YS02001757        5.50      5.50      5.64      0.01         0.01
  YS02001767YS02001765        4.92      4.92      5.16      0.01         0.01
  YS02006561YS02001783        0.01      0.01      0.17      0.01         0.01
  YS02001783YS02001784        0.17      0.17      0.27      0.01         0.01
  YS02001784YS02001785        0.19      0.27      0.19      1.11         0.17
  YS02001788YS02001790        0.13      0.13      1.55      0.01         0.01
  YS02001790YS02001791        1.55      1.55      1.68      0.01         0.01
  YS02001791YS02001793        1.68      1.68      1.97      0.01         0.01
  YS02001910YS02001907        0.01      0.01      0.27      0.01         0.01
  YS02001786YS02001788        0.13      0.19      0.13      0.55         0.12
  YS02001629YS02163301        4.67      4.67      4.80      0.01         0.01
  YS02001619YS02001622        1.52      1.53      1.99      0.01         0.03
  YS02001622YS02001625        1.99      1.99      4.39      0.01         0.01
  YS02001625YS02001629        1.59      1.59      4.39      0.01         0.01
  YS02163301YS02001633        4.80      4.80      5.18      0.01         0.01
  YS02163601YS02164001        5.17      5.17      5.48      0.01         0.01
  YS02164001YS02001641        5.17      5.17      5.31      0.01         0.01
  YS02001641YS02001644        5.31      5.31      5.32      0.01         0.93
  YS02001647YS02001649        4.32      4.32      5.50      0.01         0.01
  YS02006553YS02006556        0.01      0.01      0.37      0.01         0.01
  YS02006556YS02006558        0.04      0.04      0.52      0.01         0.01
  YS02001907YS02006553        1.13      1.13      1.35      0.01         0.01
  YS02006558YS02006561        0.01      0.01      0.01      0.94         0.01
  YS02001633YS02163601        5.07      5.07      5.48      0.01         0.01
  YS02001644YS02001647        4.32      4.32      5.32      0.01         0.01
  YS02001748YS02001751        0.21      0.21      2.04      0.01         0.01
  YS02001751YS02001754        2.03      2.03      4.05      0.01         0.01
  YS02001754YS02001757        4.29      4.29      5.64      0.01         0.01
  YS02001904YS02001907        0.01      0.01      0.42      0.01         0.01
  YS02001652YS02001649        4.39      4.39      5.50      0.01         0.01
  YS02001655YS02001652        2.54      2.54      4.21      0.01         0.01
  YS02001658YS02001655        0.01      0.01      2.54      0.01         0.01
  YS02001661YS02001658        0.01      0.01      0.01      0.01         0.01
  YS02001793JiankangQianchi        1.89      1.89      2.98      0.01         0.01
  YS02001757CaochengTiaoxuchi        0.01      0.01      5.64      0.01         0.01
  
  
  ***************
  Pumping Summary
  ***************
  
  ---------------------------------------------------------------------------------------------------------
                                                  Min       Avg       Max     Total     Power    % Time Off
                        Percent   Number of      Flow      Flow      Flow    Volume     Usage    Pump Curve
  Pump                 Utilized   Start-Ups       LPS       LPS       LPS  10^6 ltr     Kw-hr    Low   High
  ---------------------------------------------------------------------------------------------------------
  CC-Pump-1               75.61           1      0.00    198.52    200.00     4.225     13.45    0.0   16.5
  CC-Pump-2               75.61           1      0.00    198.52    200.00     4.225     13.45    0.0   16.5
  JK-Pump-1               10.64           1      0.00      1.34      1.34     0.004      0.07    0.0    0.0
  JK-Pump-2              100.00           1      0.00    224.85    300.00     4.919     54.76    0.0    0.0
  XR-Pump-1              100.00           1      0.00     95.00     95.00     2.679     20.71    0.0    0.0
  XR-Pump-2                8.51           1      0.00     71.25     95.00     0.171      2.61    0.0    0.0
  XR-Pump-3                8.51           1      0.00     71.25     95.00     0.171      2.61    0.0    0.0
  XR-Pump-4              100.00           1      0.00     94.63     95.00     2.622     19.68    0.0    0.0
  

  Analysis begun on:  Wed Jan  5 15:16:43 2022
  Analysis ended on:  Wed Jan  5 15:16:46 2022
  Total elapsed time: 00:00:03