
  EPA STORM WATER MANAGEMENT MODEL - VERSION 5.1 (Build 5.3.0.dev0)
  --------------------------------------------------------------

  WARNING 04: minimum elevation drop used for Conduit WS02004404WS02004405
  WARNING 03: negative offset ignored for Link YS02001904YS02001907
  
  *********************************************************
  NOTE: The summary statistics displayed in this report are
  based on results found at every computational time step,  
  not just on results from each reporting time step.
  *********************************************************
  
  ****************
  Analysis Options
  ****************
  Flow Units ............... LPS
  Process Models:
    Rainfall/Runoff ........ YES
    RDII ................... NO
    Snowmelt ............... NO
    Groundwater ............ NO
    Flow Routing ........... YES
    Ponding Allowed ........ NO
    Water Quality .......... YES
  Infiltration Method ...... HORTON
  Flow Routing Method ...... DYNWAVE
  Surcharge Method ......... EXTRAN
  Starting Date ............ 08/28/2015 08:00:00
  Ending Date .............. 08/28/2015 15:50:00
  Antecedent Dry Days ...... 8.0
  Report Time Step ......... 00:01:00
  Wet Time Step ............ 00:01:00
  Dry Time Step ............ 00:01:00
  Routing Time Step ........ 5.00 sec
  Variable Time Step ....... YES
  Maximum Trials ........... 8
  Number of Threads ........ 4
  Head Tolerance ........... 0.001500 m
  
  
  **************************        Volume         Depth
  Runoff Quantity Continuity     hectare-m            mm
  **************************     ---------       -------
  Total Precipitation ......         4.120         9.021
  Evaporation Loss .........         0.000         0.000
  Infiltration Loss ........         0.806         1.764
  Surface Runoff ...........         2.634         5.766
  Final Storage ............         0.681         1.492
  Continuity Error (%) .....        -0.019
  
  
  **************************           COD            SS            TN            TP         NH4-N
  Runoff Quality Continuity             kg            kg            kg            kg            kg
  **************************    ----------    ----------    ----------    ----------    ----------
  Initial Buildup ..........     41378.656     70582.865      1804.177       168.684      1032.807
  Surface Buildup ..........        16.219        26.815         2.248         0.206         1.318
  Wet Deposition ...........         0.000         0.000         0.000         0.000         0.000
  Sweeping Removal .........         0.000         0.000         0.000         0.000         0.000
  Infiltration Loss ........        56.120       102.434         1.078         0.074         0.510
  BMP Removal ..............         0.000         0.000         0.000         0.000         0.000
  Surface Runoff ...........      1907.102      3390.650        37.625         2.496        17.797
  Remaining Buildup ........     39431.082     67115.582      1767.710       166.320      1015.813
  Continuity Error (%) .....         0.001         0.001         0.001         0.000         0.001
  
  
  **************************        Volume        Volume
  Flow Routing Continuity        hectare-m      10^6 ltr
  **************************     ---------     ---------
  Dry Weather Inflow .......         0.616         6.165
  Wet Weather Inflow .......         2.633        26.330
  Groundwater Inflow .......         0.000         0.000
  RDII Inflow ..............         0.000         0.000
  External Inflow ..........         0.102         1.024
  External Outflow .........         1.392        13.919
  Flooding Loss ............         1.393        13.930
  Evaporation Loss .........         0.000         0.000
  Exfiltration Loss ........         0.000         0.000
  Initial Stored Volume ....         0.076         0.761
  Final Stored Volume ......         0.647         6.471
  Continuity Error (%) .....        -0.120
  
  
  **************************           COD            SS            TN            TP         NH4-N
  Quality Routing Continuity            kg            kg            kg            kg            kg
  **************************    ----------    ----------    ----------    ----------    ----------
  Dry Weather Inflow .......      1541.201      2465.922       147.955        18.494        92.472
  Wet Weather Inflow .......      1906.769      3390.123        37.617         2.495        17.793
  Groundwater Inflow .......         0.000         0.000         0.000         0.000         0.000
  RDII Inflow ..............         0.000         0.000         0.000         0.000         0.000
  External Inflow ..........       183.418       293.469        17.608         2.201        11.005
  External Outflow .........      1803.970      3011.374       128.531        15.391        78.534
  Flooding Loss ............      1177.020      2031.442        43.964         4.452        24.812
  Exfiltration Loss ........         0.000         0.000         0.000         0.000         0.000
  Mass Reacted .............         0.000         0.000         0.000         0.000         0.000
  Initial Stored Mass ......         0.000         0.000         0.000         0.000         0.000
  Final Stored Mass ........       633.488      1077.094        30.837         3.397        18.100
  Continuity Error (%) .....         0.466         0.481        -0.074        -0.210        -0.145
  
  
  *************************
  Highest Continuity Errors
  *************************
  Node HS02004842 (18.12%)
  Node YS02001884 (12.26%)
  Node YSB1171 (3.72%)
  Node HS02004817 (3.34%)
  Node HS02004901 (2.76%)
  
  
  ***************************
  Time-Step Critical Elements
  ***************************
  Link WS02006238WS02006235 (29.49%)
  Link YS02006556YS02006558 (27.43%)
  Link WS02006280WS02006229 (14.28%)
  Link WS02003066WSF200 (10.62%)
  Link YS02001791YS02001793 (3.03%)
  
  
  ********************************
  Highest Flow Instability Indexes
  ********************************
  Link WS02006113WS02006111 (62)
  Link YS02163601YS02164001 (42)
  Link YS02163301YS02001633 (42)
  Link YS02001629YS02163301 (41)
  Link YS02001619YS02001622 (40)
  
  
  *************************
  Routing Time Step Summary
  *************************
  Minimum Time Step           :     0.50 sec
  Average Time Step           :     2.46 sec
  Maximum Time Step           :     5.00 sec
  Percent in Steady State     :     0.00
  Average Iterations per Step :     4.78
  Percent Not Converging      :    27.66
  
  
  ***************************
  Subcatchment Runoff Summary
  ***************************
  
  ------------------------------------------------------------------------------------------------------------------------------
                            Total      Total      Total      Total     Imperv       Perv      Total       Total     Peak  Runoff
                           Precip      Runon       Evap      Infil     Runoff     Runoff     Runoff      Runoff   Runoff   Coeff
  Subcatchment                 mm         mm         mm         mm         mm         mm         mm    10^6 ltr      LPS
  ------------------------------------------------------------------------------------------------------------------------------
  sub0                       9.02       0.00       0.00       0.59       8.34       0.04       8.38        0.01     1.56   0.929
  sub1                       9.02       0.00       0.00       0.96       7.94       0.03       7.97        0.05    10.73   0.884
  sub2                       9.02       0.00       0.00       3.31       5.60       0.02       5.63        0.05     9.99   0.624
  sub3                       9.02       0.00       0.00       3.32       5.57       0.02       5.59        0.13    22.00   0.619
  sub4                       9.02       0.00       0.00       0.98       7.80       0.02       7.81        0.16    26.54   0.866
  sub5                       9.02       0.00       0.00       0.61       8.30       0.02       8.32        0.09    19.09   0.923
  sub7                       9.02       0.00       0.00       0.78       8.15       0.04       8.18        0.03     6.04   0.907
  sub8                       9.02       0.00       0.00       0.78       8.14       0.03       8.17        0.05    11.14   0.906
  sub9                       9.02       0.00       0.00       0.78       8.14       0.03       8.17        0.04     8.33   0.906
  sub10                      9.02       0.00       0.00       0.69       8.22       0.03       8.24        0.09    18.71   0.914
  sub11                      9.02       0.00       0.00       0.69       8.23       0.03       8.26        0.10    20.67   0.916
  sub12                      9.02       0.00       0.00       1.12       7.80       0.05       7.85        0.07    15.49   0.870
  sub14                      9.02       0.00       0.00       0.78       8.14       0.03       8.17        0.08    16.40   0.905
  sub15                      9.02       0.00       0.00       2.67       6.25       0.04       6.29        0.11    22.55   0.698
  sub16                      9.02       0.00       0.00       2.92       6.00       0.06       6.06        0.06    14.13   0.672
  sub17                      9.02       0.00       0.00       2.83       6.09       0.05       6.15        0.05    11.66   0.681
  sub22                      9.02       0.00       0.00       3.84       5.10       0.04       5.14        0.32    70.03   0.570
  sub23                      9.02       0.00       0.00       3.29       5.64       0.05       5.69        0.27    58.88   0.630
  sub60                      9.02       0.00       0.00       1.08       6.36       0.00       6.36        1.93   172.13   0.705
  sub61                      9.02       0.00       0.00       1.53       6.50       0.00       6.51        2.01   205.32   0.721
  sub62                      9.02       0.00       0.00       0.72       7.06       0.00       7.06        2.17   212.92   0.783
  sub63                      9.02       0.00       0.00       2.61       5.70       0.00       5.71        1.73   188.61   0.633
  sub64                      9.02       0.00       0.00       1.35       6.10       0.00       6.10        1.85   163.96   0.676
  sub65                      9.02       0.00       0.00       1.17       6.20       0.00       6.20        1.91   166.84   0.687
  sub66                      9.02       0.00       0.00       2.61       5.24       0.00       5.25        1.61   148.34   0.582
  sub67                      9.02       0.00       0.00       0.72       7.48       0.01       7.49        2.31   261.90   0.830
  sub68                      9.02       0.00       0.00       1.26       6.85       0.01       6.85        2.11   224.81   0.760
  sub69                      9.02       0.00       0.00       1.35       7.13       0.01       7.14        1.67   209.78   0.791
  sub70                      9.02       7.29       0.00       5.41       9.44       0.13       9.57        2.19   205.23   0.587
  sub71                      9.02       0.00       0.00       0.72       6.86       0.00       6.86        1.62   151.64   0.761
  sub72                      9.02       0.00       0.00       0.63       5.38       0.00       5.38        1.10    80.29   0.597
  1                          9.02       9.32       0.00       1.37      10.29       2.44      12.73        2.99   224.45   0.694
  2                          9.02       0.00       0.00       3.02       2.13       0.97       3.10        1.24   130.93   0.344
  
  
  ****************************
  Subcatchment Washoff Summary
  ****************************
  
  ------------------------------------------------------------------------------------------
                                 COD            SS            TN            TP         NH4-N
  Subcatchment                    kg            kg            kg            kg            kg
  ------------------------------------------------------------------------------------------
  sub0                         1.477         2.783         0.025         0.002         0.012
  sub1                         6.153        11.822         0.115         0.008         0.055
  sub2                         3.570         6.623         0.078         0.005         0.035
  sub3                         8.790        16.141         0.188         0.012         0.086
  sub4                        14.050        27.082         0.283         0.017         0.135
  sub5                        14.210        26.953         0.250         0.019         0.121
  sub7                         3.203         6.262         0.060         0.004         0.029
  sub8                         4.830         9.644         0.097         0.006         0.046
  sub9                         4.109         8.091         0.080         0.005         0.038
  sub10                       11.729        22.539         0.214         0.015         0.103
  sub11                       11.523        22.425         0.215         0.014         0.103
  sub12                        9.597        18.329         0.172         0.013         0.083
  sub14                        8.746        17.061         0.166         0.011         0.080
  sub15                       10.387        19.321         0.202         0.014         0.094
  sub16                        6.541        12.149         0.125         0.009         0.058
  sub17                        6.007        11.057         0.111         0.009         0.052
  sub22                       30.571        55.600         0.588         0.044         0.273
  sub23                       18.601        35.114         0.407         0.026         0.185
  sub60                      124.717       221.559         2.559         0.152         1.223
  sub61                      154.185       272.688         2.921         0.195         1.403
  sub62                      162.469       292.665         3.248         0.199         1.555
  sub63                      113.860       198.397         2.359         0.162         1.085
  sub64                      152.434       260.820         2.851         0.203         1.355
  sub65                      156.376       268.749         2.947         0.206         1.403
  sub66                       89.318       154.225         1.907         0.121         0.885
  sub67                      240.148       428.894         4.318         0.311         2.081
  sub68                      171.088       305.978         3.340         0.219         1.589
  sub69                      155.034       280.796         2.945         0.202         1.402
  sub70                      248.946       451.714         5.077         0.344         2.360
  sub71                      107.814       195.888         2.289         0.128         1.092
  sub72                       80.118       134.940         1.531         0.102         0.734
  1                          159.163       290.829         3.331         0.226         1.528
  2                           21.318        36.022         0.650         0.039         0.274
  ------------------------------------------------------------------------------------------
  System                    2311.082      4123.160        45.646         3.042        21.558
  
  
  ******************
  Node Depth Summary
  ******************
  
  ---------------------------------------------------------------------------------
                                 Average  Maximum  Maximum  Time of Max    Reported
                                   Depth    Depth      HGL   Occurrence   Max Depth
  Node                 Type       Meters   Meters   Meters  days hr:min      Meters
  ---------------------------------------------------------------------------------
  WS02001211           JUNCTION     0.69     0.73     5.56     0  02:03        0.73
  WS02001212           JUNCTION     0.41     0.45     5.52     0  02:03        0.45
  WS02001213           JUNCTION     0.63     0.71     5.48     0  02:02        0.71
  WS02003069           JUNCTION     0.43     0.56     5.15     0  02:02        0.56
  WS02003072           JUNCTION     0.50     0.62     4.99     0  02:03        0.62
  WS02003073           JUNCTION     0.30     0.38     4.45     0  02:02        0.38
  WS02003060           JUNCTION     0.38     0.50     5.43     0  02:01        0.50
  WS02003066           JUNCTION     0.21     0.31     5.86     0  01:53        0.31
  WS02003059           JUNCTION     0.69     0.77     5.46     0  02:01        0.77
  WS02003067           JUNCTION     0.51     0.71     6.03     0  01:52        0.71
  WS02004401           JUNCTION     0.61     0.90     6.90     0  01:50        0.90
  WS02004402           JUNCTION     0.64     0.93     6.89     0  01:50        0.92
  WS02004403           JUNCTION     0.66     0.95     6.88     0  01:50        0.94
  WS02004404           JUNCTION     0.73     1.09     6.94     0  01:49        1.02
  WS02004406           JUNCTION     0.74     0.98     6.81     0  01:51        0.98
  WS02004409           JUNCTION     0.44     0.69     6.46     0  01:54        0.69
  WS02004410           JUNCTION     0.45     0.71     6.43     0  01:54        0.71
  WS02004411           JUNCTION     0.47     0.71     6.39     0  01:55        0.71
  WS02004412           JUNCTION     0.48     0.72     6.36     0  01:53        0.72
  WS02004413           JUNCTION     0.63     0.87     6.34     0  01:53        0.87
  WS02004405           JUNCTION     0.73     1.00     6.85     0  01:51        0.99
  WS02006109           JUNCTION     0.70     1.01     7.62     0  01:57        1.00
  WS02006110           JUNCTION     0.70     0.94     7.53     0  01:56        0.94
  WS02006111           JUNCTION     0.20     0.29     7.00     0  01:53        0.29
  WS02006112           JUNCTION     0.78     1.11     7.00     0  01:54        1.09
  WS02006113           JUNCTION     0.30     0.47     7.36     0  01:56        0.47
  WS02006115           JUNCTION     0.51     0.81     6.94     0  01:50        0.80
  WS02006116           JUNCTION     0.59     0.88     6.92     0  01:50        0.88
  WS02006230           JUNCTION     0.65     1.03     7.78     0  01:55        1.03
  WS02006231           JUNCTION     0.40     0.69     7.81     0  01:57        0.69
  WS02006232           JUNCTION     0.51     0.81     7.85     0  01:54        0.80
  WS02006234           JUNCTION     0.43     0.73     7.88     0  01:57        0.73
  WS02006235           JUNCTION     0.45     0.76     7.92     0  01:57        0.75
  WS02006238           JUNCTION     0.47     0.78     7.92     0  01:57        0.77
  WS02006240           JUNCTION     0.34     0.62     7.91     0  01:59        0.62
  WS02006242           JUNCTION     0.37     0.65     7.92     0  01:59        0.65
  WS02006243           JUNCTION     0.24     0.50     7.92     0  01:58        0.50
  WS02006245           JUNCTION     0.20     0.43     7.92     0  01:59        0.43
  WS02006247           JUNCTION     0.19     0.42     7.92     0  01:59        0.42
  WS02006248           JUNCTION     0.13     0.34     7.92     0  01:58        0.34
  WS02006249           JUNCTION     0.14     0.33     7.93     0  01:58        0.33
  WS02006239           JUNCTION     0.41     0.70     7.91     0  01:58        0.70
  WS02006251           JUNCTION     0.10     0.27     7.94     0  01:58        0.27
  WS02006252           JUNCTION     0.00     0.00     8.24     0  00:00        0.00
  WS02006253           JUNCTION     0.14     0.30     7.95     0  01:58        0.30
  WS02006256           JUNCTION     1.77     2.35     9.28     0  01:34        2.35
  WS02004138           JUNCTION     0.16     0.17     7.42     0  04:08        0.17
  WS02004139           JUNCTION     0.63     0.67     5.58     0  02:04        0.67
  WS02004407           JUNCTION     0.20     0.31     6.62     0  01:51        0.31
  WS02006228           JUNCTION     0.70     1.05     7.70     0  01:56        1.04
  WS02006229           JUNCTION     0.67     1.04     7.74     0  01:54        1.04
  WS02006280           JUNCTION     0.08     0.17     8.44     0  01:41        0.17
  WS02006284           JUNCTION     0.38     0.52     8.92     0  01:41        0.52
  WS02006287           JUNCTION     0.12     0.25     9.20     0  01:41        0.25
  WSF200               JUNCTION     0.19     0.32     5.56     0  01:53        0.32
  HS02004901           JUNCTION     0.14     0.26    10.08     0  01:38        0.26
  HS02004881           JUNCTION     0.01     0.03     9.06     0  01:41        0.03
  HS02004876           JUNCTION     0.06     0.11     9.14     0  01:34        0.11
  HS02004870           JUNCTION     0.02     0.05     9.34     0  01:42        0.05
  HS02004862           JUNCTION     0.02     0.06     9.45     0  01:42        0.06
  HS02004856           JUNCTION     0.08     0.11     9.54     0  01:42        0.11
  HS02004852           JUNCTION     0.01     0.04     9.55     0  01:43        0.04
  HS02004848           JUNCTION     0.01     0.04     9.64     0  01:42        0.04
  HS02004842           JUNCTION     0.33     0.37     9.64     0  01:42        0.37
  HS02004837           JUNCTION     0.03     0.06     9.64     0  01:42        0.06
  HS02004830           JUNCTION     0.04     0.07     9.54     0  01:43        0.07
  HS02004824           JUNCTION     0.03     0.05     9.45     0  01:53        0.05
  HS02004817           JUNCTION     0.45     0.56     9.41     0  01:42        0.56
  HS02004807           JUNCTION     0.14     0.24     9.41     0  01:42        0.24
  HS02004802           JUNCTION     0.17     0.27     9.40     0  01:41        0.27
  HS02004799           JUNCTION     0.15     0.30     9.51     0  01:39        0.30
  HS02004792           JUNCTION     0.04     0.12     9.64     0  01:38        0.12
  HS02004788           JUNCTION     0.03     0.09     9.99     0  01:39        0.09
  HS02004785           JUNCTION     0.06     0.15    10.06     0  01:39        0.15
  HS02004777           JUNCTION     0.16     0.28    10.08     0  01:38        0.28
  HS02004770           JUNCTION     0.13     0.25    10.08     0  01:38        0.25
  HS02004480           JUNCTION     0.10     0.23     9.48     0  01:39        0.23
  HS02004479           JUNCTION     0.14     0.27     9.48     0  01:39        0.27
  HS02004478           JUNCTION     0.07     0.16     9.38     0  01:41        0.16
  YS02001745           JUNCTION     0.64     0.89     8.40     0  02:52        0.89
  YS02001748           JUNCTION     1.01     1.48     8.56     0  02:17        1.32
  YS02001751           JUNCTION     1.19     1.64     8.52     0  02:03        1.53
  YS02001754           JUNCTION     1.43     1.82     8.43     0  02:49        1.81
  YS02001762           JUNCTION     1.62     2.06     8.46     0  02:43        2.02
  YS02001765           JUNCTION     1.58     2.01     8.46     0  02:43        1.96
  YS02001767           JUNCTION     1.54     1.96     8.44     0  02:43        1.92
  YS02001770           JUNCTION     1.54     1.92     8.42     0  02:43        1.90
  YS02001774           JUNCTION     1.61     1.98     8.40     0  02:43        1.96
  YS02001779           JUNCTION     1.36     1.68     8.37     0  02:24        1.68
  YS02001882           JUNCTION     0.43     0.66     7.37     0  02:12        0.66
  YS02001884           JUNCTION     0.52     0.76     7.37     0  02:11        0.76
  YS02001759           JUNCTION     1.66     2.09     8.46     0  02:43        2.06
  YS02001887           JUNCTION     0.60     0.84     7.37     0  02:12        0.83
  YS02001890           JUNCTION     0.63     0.86     7.37     0  02:11        0.86
  YS02001898           JUNCTION     0.40     0.61     7.35     0  02:11        0.61
  YS02001901           JUNCTION     0.51     0.74     7.35     0  02:10        0.74
  YS02001904           JUNCTION     0.49     0.71     7.34     0  02:12        0.71
  YS02001907           JUNCTION     0.82     1.07     7.36     0  02:15        1.06
  YS02001910           JUNCTION     0.61     0.84     7.35     0  02:09        0.84
  YS02001915           JUNCTION     0.41     0.63     7.34     0  02:10        0.63
  YS02001918           JUNCTION     0.16     0.28     7.34     0  02:10        0.28
  YS02001619           JUNCTION     1.16     1.54     8.47     0  02:14        1.46
  YS02001629           JUNCTION     1.49     1.85     8.40     0  02:14        1.83
  YS02001641           JUNCTION     1.59     1.94     8.38     0  02:25        1.93
  YS02001644           JUNCTION     1.59     1.92     8.35     0  02:24        1.92
  YS02001652           JUNCTION     1.44     2.12     8.71     0  02:33        1.87
  YS02001655           JUNCTION     1.22     2.05     8.90     0  02:33        1.64
  YS02001920           JUNCTION     0.25     0.34     7.35     0  02:14        0.34
  YS02001923           JUNCTION     0.10     0.13     7.39     0  02:59        0.13
  YS02001926           JUNCTION     0.19     0.25     7.69     0  02:59        0.25
  YS02001929           JUNCTION     0.10     0.13     7.83     0  02:59        0.13
  YS02001658           JUNCTION     0.96     1.87     9.01     0  02:45        1.36
  YS02001661           JUNCTION     0.74     2.06     9.46     0  02:33        1.09
  YS02001664           JUNCTION     0.33     0.58     8.51     0  02:34        0.57
  YS02001622           JUNCTION     1.18     1.54     8.45     0  02:14        1.49
  YS02001633           JUNCTION     1.58     1.96     8.41     0  02:25        1.93
  YS02001649           JUNCTION     1.63     2.05     8.44     0  02:33        2.05
  YS02001757           JUNCTION     1.75     2.18     8.44     0  02:43        2.17
  YS02001895           JUNCTION     0.39     0.61     7.36     0  02:10        0.61
  YS02001625           JUNCTION     1.45     1.78     8.38     0  02:14        1.78
  YS02163301           JUNCTION     1.52     1.89     8.41     0  02:25        1.87
  YS02163601           JUNCTION     1.63     2.01     8.40     0  02:25        1.98
  YS02164001           JUNCTION     1.57     1.94     8.40     0  02:25        1.91
  YS02001647           JUNCTION     1.43     1.80     8.41     0  02:35        1.79
  YSB1154              JUNCTION     0.27     0.42     9.48     0  01:39        0.42
  YSB6556              JUNCTION     0.17     0.31     9.48     0  01:39        0.31
  YSB1174              JUNCTION     0.23     0.37     9.48     0  01:39        0.37
  YSB1171              JUNCTION     0.43     0.57     9.48     0  01:39        0.57
  YS02006553           JUNCTION     0.82     1.07     7.35     0  02:15        1.06
  YS02006561           JUNCTION     0.23     0.38     7.04     0  02:14        0.38
  YS02006556           JUNCTION     0.79     1.03     7.34     0  02:31        1.02
  YS02006558           JUNCTION     0.83     1.08     7.35     0  01:56        1.07
  YS02001783           JUNCTION     0.40     0.66     6.80     0  02:16        0.66
  YS02001784           JUNCTION     0.42     0.66     6.73     0  02:11        0.66
  YS02001786           JUNCTION     0.35     0.55     6.58     0  02:13        0.55
  YS02001788           JUNCTION     0.27     0.43     6.41     0  02:19        0.43
  YS02001790           JUNCTION     0.33     0.52     6.17     0  02:18        0.52
  YS02001791           JUNCTION     0.20     0.32     5.79     0  02:16        0.32
  YS02001793           JUNCTION     0.41     1.31     6.14     0  01:54        1.08
  WSC                  OUTFALL      0.30     0.38     1.05     0  02:03        0.38
  JK-storage           STORAGE      4.26     4.89     5.69     0  02:25        4.88
  CC-storage           STORAGE      1.01     1.40     8.40     0  02:49        1.39
  XR-storage           STORAGE      7.54     7.72     5.72     0  01:44        7.72
  
  
  *******************
  Node Inflow Summary
  *******************
  
  -------------------------------------------------------------------------------------------------
                                  Maximum  Maximum                  Lateral       Total        Flow
                                  Lateral    Total  Time of Max      Inflow      Inflow     Balance
                                   Inflow   Inflow   Occurrence      Volume      Volume       Error
  Node                 Type           LPS      LPS  days hr:min    10^6 ltr    10^6 ltr     Percent
  -------------------------------------------------------------------------------------------------
  WS02001211           JUNCTION      7.35   293.82     0  01:25       0.207        7.59       0.502
  WS02001212           JUNCTION      0.00   294.59     0  05:05           0        7.55       0.256
  WS02001213           JUNCTION      0.00   295.64     0  05:04           0        7.53       0.288
  WS02003069           JUNCTION      0.32   880.25     0  02:01     0.00902          14       0.159
  WS02003072           JUNCTION      0.00   880.25     0  02:02           0        13.9       0.207
  WS02003073           JUNCTION      1.82   882.04     0  02:03      0.0514          14       0.227
  WS02003060           JUNCTION     16.53   880.03     0  02:01       0.466          14       0.152
  WS02003066           JUNCTION      0.00   573.55     0  01:53           0        6.03       0.040
  WS02003059           JUNCTION      0.00   297.73     0  05:03           0        7.52       0.503
  WS02003067           JUNCTION      0.00   573.53     0  01:53           0        6.03       0.094
  WS02004401           JUNCTION      0.00   586.93     0  01:51           0        6.17       0.204
  WS02004402           JUNCTION      0.00   589.14     0  01:51           0        6.16       0.203
  WS02004403           JUNCTION      0.00   595.21     0  01:51           0        6.14       0.195
  WS02004404           JUNCTION      0.16   599.75     0  01:51     0.00457        6.14       0.155
  WS02004406           JUNCTION      0.00   598.29     0  01:50           0        6.11       0.384
  WS02004409           JUNCTION      0.00   584.82     0  01:51           0        6.09       0.101
  WS02004410           JUNCTION      0.00   580.24     0  01:51           0        6.08       0.136
  WS02004411           JUNCTION      0.00   577.33     0  01:52           0        6.07       0.155
  WS02004412           JUNCTION      0.00   575.37     0  01:52           0        6.06       0.188
  WS02004413           JUNCTION      0.00   573.60     0  01:55           0        6.05       0.312
  WS02004405           JUNCTION      0.04   609.50     0  01:49     0.00107        6.13       0.220
  WS02006109           JUNCTION      1.23   562.46     0  01:56      0.0347        6.18       0.197
  WS02006110           JUNCTION      0.00   562.33     0  01:55           0        6.17       0.194
  WS02006111           JUNCTION      0.00   588.44     0  01:57           0        6.15       0.018
  WS02006112           JUNCTION     11.66   578.24     0  01:53      0.0527         6.2       0.271
  WS02006113           JUNCTION      0.00   562.93     0  01:56           0        6.16       0.050
  WS02006115           JUNCTION      0.00   584.19     0  01:51           0        6.19       0.181
  WS02006116           JUNCTION      0.00   583.59     0  01:51           0        6.18       0.124
  WS02006230           JUNCTION     10.28   307.90     0  02:15        0.29        4.57       0.205
  WS02006231           JUNCTION      0.00   296.60     0  02:10           0        4.29       0.085
  WS02006232           JUNCTION      0.00   296.55     0  02:10           0        4.29       0.284
  WS02006234           JUNCTION      0.00   296.50     0  02:10           0        4.29       0.071
  WS02006235           JUNCTION      0.00   335.40     0  01:35           0         4.6       0.174
  WS02006238           JUNCTION      0.00   233.61     0  01:34           0       0.842       0.541
  WS02006240           JUNCTION      0.00   125.01     0  01:36           0       0.615       0.909
  WS02006242           JUNCTION      0.00   108.05     0  01:36           0       0.495       1.252
  WS02006243           JUNCTION      0.00    63.28     0  01:37           0       0.399       1.048
  WS02006245           JUNCTION      0.00    59.76     0  01:39           0        0.35       0.937
  WS02006247           JUNCTION      0.00    60.06     0  01:40           0       0.322       0.132
  WS02006248           JUNCTION      0.00    60.52     0  01:41           0       0.308      -0.012
  WS02006249           JUNCTION      0.00    60.96     0  01:41           0       0.304       0.250
  WS02006239           JUNCTION      0.00   135.47     0  01:35           0       0.737       0.772
  WS02006251           JUNCTION      0.08    60.98     0  01:41     0.00217       0.303      -0.041
  WS02006252           JUNCTION      0.00     0.00     0  00:00           0           0       0.000 ltr
  WS02006253           JUNCTION      1.56    60.91     0  01:40     0.00679       0.302       0.135
  WS02006256           JUNCTION      0.00   983.00     0  01:43           0        7.13      -0.127
  WS02004138           JUNCTION      0.00   285.00     0  01:24           0        7.41       0.053
  WS02004139           JUNCTION      0.32   285.32     0  01:49     0.00905        7.42       0.486
  WS02004407           JUNCTION      0.00   586.67     0  01:51           0        6.09       0.043
  WS02006228           JUNCTION      0.00   561.31     0  01:55           0        6.15       0.154
  WS02006229           JUNCTION      0.00   561.88     0  01:54           0        6.17       0.180
  WS02006280           JUNCTION      0.00   293.89     0  01:41           0        1.61       0.004
  WS02006284           JUNCTION      0.10   293.90     0  01:41      0.0027        1.61       0.038
  WS02006287           JUNCTION      0.00   293.83     0  01:41           0        1.61       0.045
  WSF200               JUNCTION      0.00   573.67     0  01:53           0        6.03       0.031
  HS02004901           JUNCTION     14.13    14.13     0  01:35      0.0635      0.0638       2.833
  HS02004881           JUNCTION      6.04    59.47     0  01:40      0.0276       0.295       0.021
  HS02004876           JUNCTION     10.73    53.52     0  01:41       0.053       0.268       0.199
  HS02004870           JUNCTION     11.14    42.89     0  01:41      0.0522       0.215       0.048
  HS02004862           JUNCTION     10.19    32.12     0  01:42      0.0581       0.163       0.104
  HS02004856           JUNCTION      8.33    21.96     0  01:41      0.0393       0.106       1.370
  HS02004852           JUNCTION      0.00    13.91     0  01:42           0       0.067       0.077
  HS02004848           JUNCTION     22.00    22.00     0  01:52       0.126       0.126       0.033
  HS02004842           JUNCTION      0.00     8.57     0  01:56           0      0.0718      22.127
  HS02004837           JUNCTION     25.06    32.52     0  01:42        0.27       0.329       0.238
  HS02004830           JUNCTION      0.15    32.65     0  01:42     0.00423       0.319       0.388
  HS02004824           JUNCTION     26.59    58.69     0  01:53       0.164       0.482       0.111
  HS02004817           JUNCTION      0.60    59.28     0  01:53      0.0169       0.499       3.457
  HS02004807           JUNCTION     20.67    78.27     0  01:44       0.096       0.579       0.754
  HS02004802           JUNCTION      0.00    78.60     0  01:45           0       0.578       0.679
  HS02004799           JUNCTION     16.40   183.02     0  01:38      0.0777       0.894       0.333
  HS02004792           JUNCTION     70.31   166.68     0  01:38       0.333       0.817       0.049
  HS02004788           JUNCTION     24.22    96.80     0  01:38       0.155       0.485       0.078
  HS02004785           JUNCTION      0.15    72.64     0  01:38     0.00423       0.331       0.147
  HS02004777           JUNCTION      0.03    72.63     0  01:37    0.000846       0.331       1.592
  HS02004770           JUNCTION     58.88    72.83     0  01:36       0.271       0.333       0.930
  HS02004480           JUNCTION      0.00   217.11     0  01:39           0        1.05       0.084
  HS02004479           JUNCTION      0.00    34.23     0  01:40           0       0.171       0.429
  HS02004478           JUNCTION      0.00   293.82     0  01:41           0        1.62       0.023
  YS02001745           JUNCTION    172.13   311.70     0  02:14        1.93        1.94       0.601
  YS02001748           JUNCTION      0.04   469.47     0  02:17     0.00127        1.93       1.074
  YS02001751           JUNCTION      0.01   258.45     0  01:59     0.00031         1.9       1.261
  YS02001754           JUNCTION      0.26   235.31     0  02:15     0.00733        1.88       1.331
  YS02001762           JUNCTION      0.00   235.50     0  02:11           0        1.55       1.382
  YS02001765           JUNCTION      0.00   231.54     0  02:11           0        1.55       1.586
  YS02001767           JUNCTION      0.54   228.38     0  02:11      0.0151        1.57       2.320
  YS02001770           JUNCTION    213.08   336.78     0  02:57        2.17        2.39       1.316
  YS02001774           JUNCTION      0.00   338.11     0  02:55           0        1.02       2.509
  YS02001779           JUNCTION      0.01   339.09     0  02:55    0.000141       0.985       1.561
  YS02001882           JUNCTION      0.00    14.04     0  01:56           0      0.0143      16.223
  YS02001884           JUNCTION      0.00    23.87     0  01:58           0       0.045      13.972
  YS02001759           JUNCTION    205.36   444.03     0  02:11        2.01        3.31       0.690
  YS02001887           JUNCTION    262.35   274.79     0  01:56        2.32        2.35       0.334
  YS02001890           JUNCTION      0.00   269.08     0  01:59           0        2.31       0.372
  YS02001898           JUNCTION      0.00   271.95     0  01:59           0        2.29       0.107
  YS02001901           JUNCTION      0.00   281.11     0  01:59           0        2.29       0.276
  YS02001904           JUNCTION      0.00   270.62     0  01:59           0        2.29       0.251
  YS02001907           JUNCTION      0.00   497.82     0  02:23           0        5.07       0.463
  YS02001910           JUNCTION      0.00   245.28     0  02:57           0        2.79       0.397
  YS02001915           JUNCTION    151.66   241.95     0  02:57        1.62        2.79       0.191
  YS02001918           JUNCTION      0.00    91.77     0  02:57           0        1.17       0.138
  YS02001619           JUNCTION    148.34   148.34     0  02:29        1.61        1.61       0.763
  YS02001629           JUNCTION      0.00   159.16     0  02:13           0        1.53       1.913
  YS02001641           JUNCTION      0.00   340.57     0  02:16           0        3.34       0.642
  YS02001644           JUNCTION    164.00   959.58     0  02:51        1.86        9.04       0.284
  YS02001652           JUNCTION      0.00   237.18     0  02:33           0        1.68       1.396
  YS02001655           JUNCTION      0.15   317.22     0  01:57     0.00434         1.7       1.467
  YS02001920           JUNCTION      2.87    83.24     0  02:59      0.0809        1.18       0.225
  YS02001923           JUNCTION      0.04    80.37     0  02:59     0.00106         1.1       0.041
  YS02001926           JUNCTION      0.05    80.34     0  02:59     0.00147         1.1       0.277
  YS02001929           JUNCTION     80.29    80.29     0  02:59         1.1         1.1       0.040
  YS02001658           JUNCTION      0.00   466.57     0  02:14           0        1.72       1.357
  YS02001661           JUNCTION      0.00   517.42     0  02:33           0         1.8       0.082
  YS02001664           JUNCTION    188.61   331.18     0  02:34        1.73         1.8       0.337
  YS02001622           JUNCTION      0.00   151.80     0  02:13           0         1.6       2.025
  YS02001633           JUNCTION    167.04   337.81     0  02:13        1.91         3.4       0.946
  YS02001649           JUNCTION      0.00   712.44     0  02:14           0        5.82       0.641
  YS02001757           JUNCTION      0.00  1239.70     0  02:25           0        6.93       1.349
  YS02001895           JUNCTION      0.00   275.73     0  01:59           0         2.3       0.206
  YS02001625           JUNCTION      0.00   159.12     0  02:13           0        1.56       2.553
  YS02163301           JUNCTION      0.00   177.40     0  02:13           0        1.52       1.597
  YS02163601           JUNCTION      0.11   337.69     0  02:13      0.0031        3.36       0.898
  YS02164001           JUNCTION      0.00   338.24     0  02:16           0        3.34       0.597
  YS02001647           JUNCTION      0.00   502.83     0  02:16           0        5.19       0.539
  YSB1154              JUNCTION     19.09    19.09     0  01:39      0.0943      0.0949       1.543
  YSB6556              JUNCTION      0.00    19.20     0  01:39           0      0.0956       1.328
  YSB1174              JUNCTION     15.49    15.49     0  01:35      0.0686       0.069       1.890
  YSB1171              JUNCTION      0.00    34.42     0  01:38           0        0.17       3.866
  YS02006553           JUNCTION      0.00   491.99     0  02:32           0        5.06       0.297
  YS02006561           JUNCTION      0.00   726.14     0  02:15           0        7.13       0.011
  YS02006556           JUNCTION      0.00   493.58     0  02:15           0        5.07       0.212
  YS02006558           JUNCTION    225.69   733.59     0  02:31        2.13        7.17       0.060
  YS02001783           JUNCTION      0.00   719.61     0  02:14           0        7.13       0.027
  YS02001784           JUNCTION      1.06   712.44     0  02:15      0.0299        7.16       0.044
  YS02001786           JUNCTION      0.06   710.48     0  02:15     0.00159        7.16       0.042
  YS02001788           JUNCTION      0.07   710.01     0  02:13       0.002        7.16       0.025
  YS02001790           JUNCTION      0.15   710.51     0  02:16     0.00437        7.16       0.031
  YS02001791           JUNCTION      0.00   731.40     0  02:18           0        7.16       0.015
  YS02001793           JUNCTION      0.00   798.35     0  01:39           0         7.2      -0.188
  WSC                  OUTFALL       0.00   882.04     0  02:03           0        13.9       0.000
  JK-storage           STORAGE       0.00  1155.48     0  02:14           0        7.36       0.065
  CC-storage           STORAGE       0.00  1241.47     0  02:12           0        3.96       1.668
  XR-storage           STORAGE     525.74   525.74     0  02:57        9.87        10.5      -0.001
  
  
  **********************
  Node Surcharge Summary
  **********************
  
  Surcharging occurs when water rises above the top of the highest conduit.
  ---------------------------------------------------------------------
                                               Max. Height   Min. Depth
                                   Hours       Above Crown    Below Rim
  Node                 Type      Surcharged         Meters       Meters
  ---------------------------------------------------------------------
  WS02004404           JUNCTION        0.03          0.094        2.686
  WS02006109           JUNCTION        1.30          0.185        1.635
  WS02006110           JUNCTION        0.51          0.031        1.819
  WS02006112           JUNCTION        0.71          0.114        1.566
  WS02006232           JUNCTION        0.75          0.108        1.372
  WS02006234           JUNCTION        0.15          0.007        1.233
  WS02006235           JUNCTION        0.37          0.045        1.245
  WS02006238           JUNCTION        0.43          0.056        1.374
  WS02006256           JUNCTION        6.34          2.050        0.000
  WS02006228           JUNCTION        1.26          0.222        1.978
  YS02001748           JUNCTION        5.48          0.398        0.792
  YS02001751           JUNCTION        5.72          0.645        0.555
  YS02001754           JUNCTION        5.95          0.770        0.380
  YS02001762           JUNCTION        6.15          1.060        0.090
  YS02001765           JUNCTION        6.12          1.007        0.093
  YS02001767           JUNCTION        6.11          0.955        0.075
  YS02001770           JUNCTION        6.10          0.891        0.029
  YS02001774           JUNCTION        6.13          0.977        0.073
  YS02001779           JUNCTION        5.94          0.680        0.000
  YS02001759           JUNCTION        6.16          1.091        0.119
  YS02001907           JUNCTION        1.33          0.057        0.893
  YS02001619           JUNCTION        5.76          0.540        0.070
  YS02001629           JUNCTION        5.75          0.470        0.000
  YS02001641           JUNCTION        6.13          0.945        0.155
  YS02001644           JUNCTION        6.13          0.920        0.000
  YS02001652           JUNCTION        5.98          1.086        0.044
  YS02001655           JUNCTION        5.80          1.051        0.149
  YS02001658           JUNCTION        5.50          0.872        0.428
  YS02001661           JUNCTION        0.06          0.988        0.402
  YS02001622           JUNCTION        5.80          0.543        0.077
  YS02001633           JUNCTION        6.12          0.940        0.120
  YS02001649           JUNCTION        6.15          1.050        0.000
  YS02001757           JUNCTION        6.20          1.177        0.033
  YS02001625           JUNCTION        6.06          0.780        0.000
  YS02163301           JUNCTION        6.10          0.895        0.135
  YS02163601           JUNCTION        6.14          1.006        0.074
  YS02164001           JUNCTION        6.12          0.941        0.159
  YS02001647           JUNCTION        6.01          0.804        0.096
  YS02006553           JUNCTION        1.41          0.066        1.124
  YS02001793           JUNCTION        0.01          0.313        2.287
  
  
  *********************
  Node Flooding Summary
  *********************
  
  Flooding refers to all water that overflows a node, whether it ponds or not.
  --------------------------------------------------------------------------
                                                             Total   Maximum
                                 Maximum   Time of Max       Flood    Ponded
                        Hours       Rate    Occurrence      Volume     Depth
  Node                 Flooded       LPS   days hr:min    10^6 ltr    Meters
  --------------------------------------------------------------------------
  WS02006256              4.50    751.58      0  01:58       3.107     0.000
  YS02001779              2.20    338.99      0  02:55       0.965     0.000
  YS02001629              0.01     26.06      0  02:14       0.000     0.000
  YS02001644              5.39    959.49      0  02:51       7.686     0.000
  YS02001649              0.01     31.80      0  02:35       0.000     0.000
  YS02001625              0.10     17.13      0  02:25       0.001     0.000
  XR-storage              5.10    240.74      0  02:57       2.170     0.000
  
  
  **********************
  Storage Volume Summary
  **********************
  
  --------------------------------------------------------------------------------------------------
                         Average     Avg  Evap Exfil       Maximum     Max    Time of Max    Maximum
                          Volume    Pcnt  Pcnt  Pcnt        Volume    Pcnt     Occurrence    Outflow
  Storage Unit           1000 m3    Full  Loss  Loss       1000 m3    Full    days hr:min        LPS
  --------------------------------------------------------------------------------------------------
  JK-storage               0.214      74     0     0         0.246      84       0  02:25     983.00
  CC-storage               2.802      18     0     0         3.888      25       0  02:49     114.12
  XR-storage               0.905      98     0     0         0.926     100       0  01:44     285.00
  
  
  ***********************
  Outfall Loading Summary
  ***********************
  
  ---------------------------------------------------------------------------------------------------------------------------------
                         Flow       Avg       Max       Total         Total         Total         Total         Total         Total
                         Freq      Flow      Flow      Volume           COD            SS            TN            TP         NH4-N
  Outfall Node           Pcnt       LPS       LPS    10^6 ltr            kg            kg            kg            kg            kg
  ---------------------------------------------------------------------------------------------------------------------------------
  WSC                   99.99    576.95    882.04      13.919      1804.100      3011.576       128.544        15.392        78.543
  ---------------------------------------------------------------------------------------------------------------------------------
  System                99.99    576.95    882.04      13.919      1804.100      3011.576       128.544        15.392        78.543
  
  
  ********************
  Link Flow Summary
  ********************
  
  -----------------------------------------------------------------------------
                                 Maximum  Time of Max   Maximum    Max/    Max/
                                  |Flow|   Occurrence   |Veloc|    Full    Full
  Link                 Type          LPS  days hr:min     m/sec    Flow   Depth
  -----------------------------------------------------------------------------
  WS02003066WSF200     CONDUIT    573.67     0  01:53      2.74    0.10    0.24
  WS02006287WS02006284 CONDUIT    293.81     0  01:41      1.83    0.14    0.26
  WS02006284WS02006280 CONDUIT    293.89     0  01:41      2.07    0.12    0.24
  WS02006280WS02006229 CONDUIT    293.89     0  01:41      3.33    0.06    0.17
  WS02006229WS02006228 CONDUIT    561.31     0  01:55      1.12    1.86    1.00
  WS02006256WS02006235 CONDUIT    287.76     0  07:46      4.18    3.05    1.00
  WS02006253WS02006251 CONDUIT     60.90     0  01:41      0.56    0.18    0.40
  WS02006252WS02006251 CONDUIT      0.00     0  00:00      0.00    0.00    0.00
  WS02006251WS02006249 CONDUIT     60.96     0  01:41      0.62    0.18    0.43
  WS02006249WS02006248 CONDUIT     60.52     0  01:41      0.72    0.33    0.46
  WS02006248WS02006247 CONDUIT     60.06     0  01:40      0.69    0.13    0.53
  WS02006247WS02006245 CONDUIT     59.76     0  01:39      0.64    0.47    0.60
  WS02006245WS02006243 CONDUIT     59.57     0  01:37      0.78    0.18    0.66
  WS02006243WS02006242 CONDUIT     62.16     0  01:38      0.62    0.13    0.80
  WS02006242WS02006240 CONDUIT     80.04     0  04:51      0.70    0.32    0.90
  WS02006240WS02006239 CONDUIT    102.02     0  04:50      0.75    0.32    0.92
  WS02006239WS02006238 CONDUIT    127.71     0  04:50      0.85    0.41    1.00
  WS02006238WS02006235 CONDUIT    190.69     0  01:35      1.16    0.43    1.00
  WS02006235WS02006234 CONDUIT    296.50     0  02:10      1.05    3.13    1.00
  WS02006234WS02006232 CONDUIT    296.55     0  02:10      0.94    0.60    1.00
  WS02006232WS02006231 CONDUIT    296.60     0  02:10      0.86    0.62    0.99
  WS02006231WS02006230 CONDUIT    297.62     0  02:15      1.21    4.51    0.96
  WS02006230WS02006229 CONDUIT    309.44     0  02:17      0.80    6.89    1.00
  WS02006228WS02006109 CONDUIT    561.23     0  01:56      1.12    2.45    1.00
  WS02006116WS02004401 CONDUIT    586.93     0  01:51      0.80    0.81    0.89
  WS02006115WS02006116 CONDUIT    583.59     0  01:51      1.00    0.75    0.81
  WS02006113WS02006111 CONDUIT    588.44     0  01:57      2.50    0.71    0.47
  WS02006112WS02006115 CONDUIT    584.19     0  01:51      0.79    0.34    0.90
  WS02006111WS02006112 CONDUIT    568.51     0  01:53      1.57    0.27    0.68
  WS02006110WS02006113 CONDUIT    562.93     0  01:56      1.32    0.51    0.79
  WS02006109WS02006110 CONDUIT    562.33     0  01:55      1.12    1.08    1.00
  WS02004411WS02004412 CONDUIT    575.37     0  01:52      1.00    0.82    0.71
  WS02004401WS02004402 CONDUIT    589.14     0  01:51      0.79    0.71    0.91
  WS02004413WS02003067 CONDUIT    573.53     0  01:53      1.15    0.25    0.61
  WS02004412WS02004413 CONDUIT    573.60     0  01:55      0.96    0.38    0.80
  WS02004410WS02004411 CONDUIT    577.33     0  01:52      0.97    0.79    0.71
  WS02004409WS02004410 CONDUIT    580.24     0  01:51      1.00    0.75    0.70
  WS02004407WS02004409 CONDUIT    584.82     0  01:51      1.50    0.21    0.50
  WS02004406WS02004407 CONDUIT    586.67     0  01:51      1.09    0.26    0.65
  WS02004405WS02004406 CONDUIT    598.29     0  01:50      0.76    1.18    0.99
  WS02004404WS02004405 CONDUIT    609.46     0  01:49      0.78    5.97    1.00
  WS02004403WS02004404 CONDUIT    599.59     0  01:51      0.77    0.43    0.97
  WS02004402WS02004403 CONDUIT    595.21     0  01:51      0.79    0.86    0.94
  WS02004139WS02001211 CONDUIT    286.47     0  01:25      0.54    0.36    0.54
  WS02004138WS02004139 CONDUIT    285.00     0  01:49      2.39    0.06    0.39
  WS02003067WS02003066 CONDUIT    573.55     0  01:53      1.25    0.18    0.43
  WS02001213WS02003059 CONDUIT    297.73     0  05:03      0.59    0.49    0.73
  WS02001212WS02001213 CONDUIT    295.64     0  05:04      1.19    0.46    0.42
  WS02001211WS02001212 CONDUIT    294.59     0  05:05      0.67    0.23    0.59
  WS02003072WS02003073 CONDUIT    880.22     0  02:03      1.69    1.90    0.47
  WS02003069WS02003072 CONDUIT    880.25     0  02:02      1.59    0.42    0.49
  WS02003060WS02003069 CONDUIT    879.93     0  02:01      1.84    0.34    0.44
  WS02003059WS02003060 CONDUIT    300.76     0  05:03      0.82    0.20    0.63
  HS02004901HS02004770 CONDUIT     13.98     0  01:36      0.07    0.05    0.36
  HS02004876HS02004881 CONDUIT     53.62     0  01:41      0.78    0.57    0.10
  HS02004870HS02004876 CONDUIT     42.88     0  01:42      0.54    0.03    0.11
  HS02004842HS02004848 CONDUIT      8.57     0  01:56      0.04    0.00    0.29
  HS02004837HS02004842 CONDUIT      8.74     0  01:59      0.42    0.01    0.30
  HS02004830HS02004837 CONDUIT     32.50     0  01:42      0.50    0.03    0.09
  HS02004824HS02004830 CONDUIT     32.65     0  01:43      0.54    0.04    0.09
  HS02004817HS02004824 CONDUIT     58.68     0  01:53      0.19    0.03    0.44
  HS02004770HS02004777 CONDUIT     72.60     0  01:37      0.28    0.13    0.37
  HS02004799HS02004480 CONDUIT    182.94     0  01:38      0.70    0.23    0.37
  HS02004792HS02004799 CONDUIT    166.64     0  01:38      0.80    0.10    0.30
  HS02004788HS02004792 CONDUIT     96.77     0  01:39      0.94    0.06    0.15
  HS02004785HS02004788 CONDUIT     72.61     0  01:39      0.60    0.55    0.17
  HS02004777HS02004785 CONDUIT     72.49     0  01:38      0.34    0.09    0.31
  HS02004480HS02004478 CONDUIT    216.95     0  01:39      1.11    0.91    0.28
  HS02004479HS02004480 CONDUIT     34.42     0  01:41      0.37    0.03    0.36
  HS02004862HS02004870 CONDUIT     32.10     0  01:42      0.56    0.03    0.08
  HS02004848HS02004852 CONDUIT     13.91     0  01:42      0.38    0.02    0.05
  HS02004856HS02004862 CONDUIT     21.94     0  01:42      0.41    0.02    0.08
  HS02004852HS02004856 CONDUIT     13.90     0  01:43      0.18    0.02    0.11
  HS02004802HS02004478 CONDUIT     78.95     0  01:46      0.38    0.07    0.30
  HS02004478WS02006287 CONDUIT    293.83     0  01:41      1.53    0.08    0.21
  HS02004817HS02004807 CONDUIT     59.61     0  01:53      0.15    0.04    0.57
  HS02004807HS02004802 CONDUIT     78.60     0  01:45      0.32    0.15    0.35
  YS02001759YS02001757 CONDUIT    446.98     0  02:11      0.57    0.32    1.00
  YS02001762YS02001759 CONDUIT    239.38     0  02:11      0.30    0.28    1.00
  YS02001765YS02001762 CONDUIT    235.50     0  02:11      0.30    0.22    1.00
  YS02001770YS02001767 CONDUIT    227.84     0  02:11      0.42    0.90    1.00
  YS02001774YS02001770 CONDUIT    338.11     0  02:55      0.43    0.22    1.00
  YS02001779YS02001774 CONDUIT    339.08     0  02:55      0.43    0.17    1.00
  YS02001649YS02001757 CONDUIT    713.35     0  02:14      0.91    0.43    1.00
  YS02001767YS02001765 CONDUIT    231.54     0  02:11      0.40    0.29    1.00
  YS02006561YS02001783 CONDUIT    719.61     0  02:14      2.12    0.37    0.65
  YS02001783YS02001784 CONDUIT    711.38     0  02:15      1.61    0.98    0.82
  YS02001784YS02001785 CONDUIT    710.42     0  02:15      1.74    1.65    0.76
  YS02001788YS02001790 CONDUIT    710.36     0  02:16      2.27    0.52    0.60
  YS02001790YS02001791 CONDUIT    731.40     0  02:18      2.79    0.80    0.53
  YS02001791YS02001793 CONDUIT    749.50     0  02:18      4.05    0.32    0.70
  YS02001910YS02001907 CONDUIT    242.71     0  03:01      0.49    0.14    0.92
  YS02001786YS02001788 CONDUIT    709.93     0  02:13      2.19    1.37    0.62
  YS02001915YS02001910 CONDUIT    245.28     0  02:57      0.65    0.12    0.73
  YS02001918YS02001915 CONDUIT    100.86     0  02:57      0.44    0.06    0.45
  YS02001923YS02001920 CONDUIT     80.37     0  02:59      0.63    0.04    0.24
  YS02001926YS02001923 CONDUIT     80.33     0  02:59      0.71    0.11    0.20
  YS02001929YS02001926 CONDUIT     80.29     0  02:59      0.77    0.04    0.19
  YS02001920YS02001918 CONDUIT     91.77     0  02:57      0.62    0.09    0.31
  YS02001629YS02163301 CONDUIT    177.40     0  02:13      0.23    0.22    1.00
  YS02001619YS02001622 CONDUIT    151.80     0  02:13      0.70    0.22    1.00
  YS02001622YS02001625 CONDUIT    159.12     0  02:13      0.46    0.08    1.00
  YS02001625YS02001629 CONDUIT    159.16     0  02:13      0.28    0.08    1.00
  YS02163301YS02001633 CONDUIT    177.42     0  02:13      0.23    0.17    1.00
  YS02163601YS02164001 CONDUIT    338.24     0  02:16      0.43    0.30    1.00
  YS02164001YS02001641 CONDUIT    340.57     0  02:16      0.43    0.47    1.00
  YS02001641YS02001644 CONDUIT    342.57     0  02:16      0.44    1.11    1.00
  YS02001647YS02001649 CONDUIT    504.62     0  02:16      0.64    0.27    1.00
  YS02006553YS02006556 CONDUIT    493.58     0  02:15      0.63    0.42    1.00
  YS02006556YS02006558 CONDUIT    515.57     0  02:31      0.66    0.41    1.00
  YSB6556YSB1171       CONDUIT     19.41     0  01:42      0.09    0.02    0.63
  YS02001907YS02006553 CONDUIT    491.99     0  02:32      0.55    0.58    1.00
  YS02006558YS02006561 CONDUIT    726.14     0  02:15      3.14    1.60    0.77
  YS02001633YS02163601 CONDUIT    337.58     0  02:13      0.43    0.35    1.00
  YS02001644YS02001647 CONDUIT    502.83     0  02:16      0.64    0.30    1.00
  YS02001745YS02001748 CONDUIT    469.42     0  02:17      1.56    0.18    0.94
  YS02001748YS02001751 CONDUIT    258.43     0  01:59      1.17    0.13    1.00
  YS02001751YS02001754 CONDUIT    235.05     0  02:15      1.01    0.11    1.00
  YS02001754YS02001757 CONDUIT    235.94     0  02:15      0.33    0.10    1.00
  YS02001882YS02001884 CONDUIT     16.93     0  01:56      0.16    0.02    0.68
  YS02001884YS02001887 CONDUIT     25.33     0  01:56      0.12    0.03    0.77
  YS02001890YS02001895 CONDUIT    275.73     0  01:59      0.46    0.13    0.74
  YS02001895YS02001898 CONDUIT    271.95     0  01:59      0.58    0.47    0.60
  YS02001898YS02001901 CONDUIT    281.11     0  01:59      0.51    0.18    0.67
  YS02001901YS02001904 CONDUIT    270.62     0  01:59      0.46    0.42    0.73
  YS02001904YS02001907 CONDUIT    272.83     0  02:10      0.38    0.10    0.86
  YS02001887YS02001890 CONDUIT    269.08     0  01:59      0.40    0.46    0.82
  YS02001652YS02001649 CONDUIT    241.85     0  02:33      0.72    0.12    1.00
  YS02001655YS02001652 CONDUIT    237.18     0  02:33      1.08    0.12    1.00
  YS02001658YS02001655 CONDUIT    317.06     0  01:57      1.35    0.13    1.00
  YS02001661YS02001658 CONDUIT    466.57     0  02:14      1.65    0.18    1.00
  YS02001664YS02001661 CONDUIT    517.42     0  02:33      1.51    0.16    0.73
  YSB1154YSB6556       CONDUIT     19.20     0  01:39      0.15    0.03    0.52
  YSB1174YSB1171       CONDUIT     15.50     0  01:36      0.06    0.02    0.64
  YSB1171HS02004479    CONDUIT     34.23     0  01:40      0.54    0.02    0.50
  HS02004881HS02006253 CONDUIT     59.46     0  01:41      1.96    0.01    0.04
  YS02001793JiankangQianchi CONDUIT   1155.48     0  02:14      1.69    0.09    1.00
  YS02001757CaochengTiaoxuchi CONDUIT   1241.47     0  02:12      2.23    0.55    1.00
  WSF200WS02003060     CONDUIT    574.47     0  01:53      1.70    0.13    0.34
  1                    CONDUIT    882.04     0  02:03      3.22    0.31    0.38
  CC-Pump-1            PUMP         0.00     0  00:00              0.00
  CC-Pump-2            PUMP         0.00     0  00:00              0.00
  JK-Pump-1            PUMP       300.00     0  01:34              1.00
  JK-Pump-2            PUMP       683.00     0  01:43              1.00
  XR-Pump-1            PUMP        95.00     0  00:00              1.00
  XR-Pump-2            PUMP        95.00     0  00:25              1.00
  XR-Pump-3            PUMP        95.00     0  01:24              1.00
  XR-Pump-4            PUMP         0.00     0  00:00              0.00
  
  
  ***************************
  Flow Classification Summary
  ***************************
  
  -------------------------------------------------------------------------------------
                      Adjusted    ---------- Fraction of Time in Flow Class ---------- 
                       /Actual         Up    Down  Sub   Sup   Up    Down  Norm  Inlet 
  Conduit               Length    Dry  Dry   Dry   Crit  Crit  Crit  Crit  Ltd   Ctrl  
  -------------------------------------------------------------------------------------
  WS02003066WSF200        1.00   0.14  0.00  0.00  0.00  0.86  0.00  0.00  0.68  0.00
  WS02006287WS02006284    1.00   0.05  0.02  0.00  0.40  0.53  0.00  0.00  0.74  0.00
  WS02006284WS02006280    1.00   0.07  0.00  0.00  0.00  0.00  0.00  0.93  0.00  0.00
  WS02006280WS02006229    1.00   0.07  0.00  0.00  0.00  0.00  0.00  0.93  0.00  0.00
  WS02006229WS02006228    1.00   0.00  0.00  0.00  0.99  0.00  0.00  0.00  0.00  0.00
  WS02006256WS02006235    1.00   0.10  0.00  0.00  0.89  0.01  0.00  0.00  0.00  0.00
  WS02006253WS02006251    1.00   0.02  0.03  0.00  0.93  0.00  0.01  0.00  0.00  0.00
  WS02006252WS02006251    1.00   1.00  0.00  0.00  0.00  0.00  0.00  0.00  0.00  0.00
  WS02006251WS02006249    1.00   0.00  0.00  0.00  1.00  0.00  0.00  0.00  0.79  0.00
  WS02006249WS02006248    1.00   0.00  0.01  0.00  0.69  0.00  0.30  0.00  0.00  0.00
  WS02006248WS02006247    1.00   0.01  0.00  0.00  0.96  0.00  0.00  0.03  0.32  0.00
  WS02006247WS02006245    1.00   0.01  0.00  0.00  0.94  0.00  0.00  0.05  0.00  0.00
  WS02006245WS02006243    1.00   0.02  0.00  0.00  0.91  0.00  0.00  0.08  0.01  0.00
  WS02006243WS02006242    1.00   0.02  0.00  0.00  0.91  0.00  0.00  0.07  0.24  0.00
  WS02006242WS02006240    1.00   0.02  0.06  0.00  0.90  0.00  0.01  0.00  0.00  0.00
  WS02006240WS02006239    1.00   0.08  0.00  0.00  0.89  0.00  0.00  0.03  0.03  0.00
  WS02006239WS02006238    1.00   0.08  0.00  0.00  0.90  0.00  0.00  0.01  0.00  0.00
  WS02006238WS02006235    1.00   0.09  0.01  0.00  0.90  0.00  0.00  0.00  0.00  0.00
  WS02006235WS02006234    1.00   0.10  0.00  0.00  0.88  0.00  0.02  0.00  0.00  0.00
  WS02006234WS02006232    1.00   0.10  0.00  0.00  0.90  0.00  0.00  0.00  0.01  0.00
  WS02006232WS02006231    1.00   0.09  0.00  0.00  0.90  0.00  0.00  0.00  0.00  0.00
  WS02006231WS02006230    1.00   0.09  0.00  0.00  0.48  0.00  0.43  0.00  0.00  0.00
  WS02006230WS02006229    1.00   0.00  0.00  0.00  0.98  0.00  0.00  0.02  0.01  0.00
  WS02006228WS02006109    1.00   0.00  0.00  0.00  1.00  0.00  0.00  0.00  0.01  0.00
  WS02006116WS02004401    1.00   0.05  0.00  0.00  0.95  0.00  0.00  0.00  0.00  0.00
  WS02006115WS02006116    1.00   0.05  0.00  0.00  0.90  0.00  0.00  0.04  0.00  0.00
  WS02006113WS02006111    1.00   0.03  0.00  0.00  0.01  0.95  0.00  0.00  0.31  0.00
  WS02006112WS02006115    1.00   0.04  0.02  0.00  0.94  0.00  0.00  0.00  0.00  0.00
  WS02006111WS02006112    1.00   0.04  0.00  0.00  0.96  0.00  0.00  0.00  0.92  0.00
  WS02006110WS02006113    1.00   0.01  0.03  0.00  0.97  0.00  0.00  0.00  0.00  0.00
  WS02006109WS02006110    1.00   0.00  0.01  0.00  0.99  0.00  0.01  0.00  0.00  0.00
  WS02004411WS02004412    1.00   0.11  0.00  0.00  0.89  0.00  0.00  0.00  0.00  0.00
  WS02004401WS02004402    1.00   0.06  0.00  0.00  0.94  0.00  0.00  0.00  0.03  0.00
  WS02004413WS02003067    1.00   0.12  0.01  0.00  0.00  0.00  0.87  0.00  0.00  0.00
  WS02004412WS02004413    1.00   0.11  0.00  0.00  0.88  0.00  0.00  0.00  0.00  0.00
  WS02004410WS02004411    1.00   0.11  0.00  0.00  0.89  0.00  0.00  0.00  0.00  0.00
  WS02004409WS02004410    1.00   0.11  0.00  0.00  0.89  0.00  0.00  0.00  0.00  0.00
  WS02004407WS02004409    1.00   0.11  0.00  0.00  0.88  0.01  0.00  0.00  0.81  0.00
  WS02004406WS02004407    1.00   0.00  0.11  0.00  0.89  0.00  0.00  0.00  0.00  0.00
  WS02004405WS02004406    1.00   0.00  0.00  0.00  1.00  0.00  0.00  0.00  0.05  0.00
  WS02004404WS02004405    1.00   0.00  0.00  0.00  1.00  0.00  0.00  0.00  0.02  0.00
  WS02004403WS02004404    1.00   0.00  0.06  0.00  0.94  0.00  0.00  0.00  0.04  0.00
  WS02004402WS02004403    1.00   0.06  0.00  0.00  0.94  0.00  0.00  0.00  0.00  0.00
  WS02004139WS02001211    1.00   0.00  0.00  0.00  1.00  0.00  0.00  0.00  0.00  0.00
  WS02004138WS02004139    1.00   0.00  0.00  0.00  0.99  0.00  0.00  0.00  1.00  0.00
  WS02003067WS02003066    1.00   0.13  0.01  0.00  0.86  0.00  0.00  0.00  0.00  0.00
  WS02001213WS02003059    1.00   0.00  0.00  0.00  1.00  0.00  0.00  0.00  0.00  0.00
  WS02001212WS02001213    1.00   0.00  0.00  0.00  0.64  0.00  0.35  0.00  0.00  0.00
  WS02001211WS02001212    1.00   0.00  0.00  0.00  1.00  0.00  0.00  0.00  0.00  0.00
  WS02003072WS02003073    1.00   0.00  0.00  0.00  0.00  0.00  0.00  1.00  0.00  0.00
  WS02003069WS02003072    1.00   0.00  0.00  0.00  1.00  0.00  0.00  0.00  0.20  0.00
  WS02003060WS02003069    1.00   0.00  0.00  0.00  0.99  0.01  0.00  0.00  0.14  0.00
  WS02003059WS02003060    1.00   0.00  0.00  0.00  1.00  0.00  0.00  0.00  0.02  0.00
  HS02004901HS02004770    1.00   0.06  0.00  0.00  0.94  0.00  0.00  0.00  0.00  0.00
  HS02004876HS02004881    1.00   0.01  0.00  0.00  0.99  0.00  0.00  0.00  0.00  0.00
  HS02004870HS02004876    1.00   0.00  0.00  0.00  0.99  0.00  0.00  0.00  0.95  0.00
  HS02004842HS02004848    1.00   0.00  0.06  0.00  0.94  0.00  0.00  0.00  0.58  0.00
  HS02004837HS02004842    1.00   0.00  0.00  0.00  1.00  0.00  0.00  0.00  0.11  0.00
  HS02004830HS02004837    1.00   0.00  0.00  0.00  1.00  0.00  0.00  0.00  0.99  0.00
  HS02004824HS02004830    1.00   0.00  0.00  0.00  1.00  0.00  0.00  0.00  0.00  0.00
  HS02004817HS02004824    1.00   0.00  0.00  0.00  1.00  0.00  0.00  0.00  1.00  0.00
  HS02004770HS02004777    1.00   0.00  0.06  0.00  0.94  0.00  0.00  0.00  0.01  0.00
  HS02004799HS02004480    1.00   0.00  0.02  0.00  0.92  0.00  0.06  0.00  0.00  0.00
  HS02004792HS02004799    1.00   0.00  0.00  0.00  0.99  0.01  0.00  0.00  0.98  0.00
  HS02004788HS02004792    1.00   0.00  0.00  0.00  1.00  0.00  0.00  0.00  0.98  0.00
  HS02004785HS02004788    1.00   0.00  0.00  0.00  1.00  0.00  0.00  0.00  0.00  0.00
  HS02004777HS02004785    1.00   0.00  0.00  0.00  1.00  0.00  0.00  0.00  0.11  0.00
  HS02004480HS02004478    1.00   0.07  0.00  0.00  0.43  0.00  0.00  0.51  0.00  0.00
  HS02004479HS02004480    1.00   0.02  0.00  0.00  0.98  0.00  0.00  0.00  0.11  0.00
  HS02004862HS02004870    1.00   0.00  0.00  0.00  1.00  0.00  0.00  0.00  0.03  0.00
  HS02004848HS02004852    1.00   0.06  0.00  0.00  0.94  0.00  0.00  0.00  0.79  0.00
  HS02004856HS02004862    1.00   0.00  0.08  0.00  0.92  0.00  0.00  0.00  0.84  0.00
  HS02004852HS02004856    1.00   0.06  0.00  0.00  0.93  0.00  0.00  0.00  0.86  0.00
  HS02004802HS02004478    1.00   0.07  0.00  0.00  0.93  0.00  0.00  0.00  0.02  0.00
  HS02004478WS02006287    1.00   0.08  0.00  0.00  0.65  0.28  0.00  0.00  0.72  0.00
  HS02004817HS02004807    1.00   0.00  0.06  0.00  0.94  0.00  0.00  0.00  0.01  0.00
  HS02004807HS02004802    1.00   0.06  0.00  0.00  0.93  0.00  0.00  0.01  0.00  0.00
  YS02001759YS02001757    1.00   0.00  0.00  0.00  1.00  0.00  0.00  0.00  0.15  0.00
  YS02001762YS02001759    1.00   0.00  0.00  0.00  1.00  0.00  0.00  0.00  0.02  0.00
  YS02001765YS02001762    1.00   0.00  0.00  0.00  1.00  0.00  0.00  0.00  0.13  0.00
  YS02001770YS02001767    1.00   0.00  0.00  0.00  1.00  0.00  0.00  0.00  0.00  0.00
  YS02001774YS02001770    1.00   0.00  0.07  0.00  0.93  0.00  0.00  0.00  0.01  0.00
  YS02001779YS02001774    1.00   0.00  0.00  0.00  1.00  0.00  0.00  0.00  0.16  0.00
  YS02001649YS02001757    1.00   0.00  0.00  0.00  1.00  0.00  0.00  0.00  0.15  0.00
  YS02001767YS02001765    1.00   0.00  0.00  0.00  1.00  0.00  0.00  0.00  0.00  0.00
  YS02006561YS02001783    1.00   0.09  0.00  0.00  0.07  0.85  0.00  0.00  0.55  0.00
  YS02001783YS02001784    1.00   0.00  0.09  0.00  0.91  0.00  0.00  0.00  0.00  0.00
  YS02001784YS02001785    1.00   0.00  0.00  0.00  1.00  0.00  0.00  0.00  0.16  0.00
  YS02001788YS02001790    1.00   0.00  0.00  0.00  0.09  0.91  0.00  0.00  0.54  0.00
  YS02001790YS02001791    1.00   0.00  0.00  0.00  0.01  0.99  0.00  0.00  0.73  0.00
  YS02001791YS02001793    1.00   0.00  0.00  0.00  0.36  0.64  0.00  0.00  0.42  0.00
  YS02001910YS02001907    1.00   0.00  0.00  0.00  0.99  0.00  0.00  0.01  0.12  0.00
  YS02001786YS02001788    1.00   0.00  0.00  0.00  0.10  0.90  0.00  0.00  0.00  0.00
  YS02001915YS02001910    1.00   0.00  0.00  0.00  0.99  0.01  0.00  0.00  0.13  0.00
  YS02001918YS02001915    1.00   0.00  0.00  0.00  0.99  0.01  0.00  0.00  0.61  0.00
  YS02001923YS02001920    1.00   0.00  0.00  0.00  1.00  0.00  0.00  0.00  1.00  0.00
  YS02001926YS02001923    1.00   0.00  0.04  0.00  0.00  0.00  0.96  0.00  0.00  0.00
  YS02001929YS02001926    1.00   0.00  0.06  0.00  0.94  0.00  0.00  0.00  0.87  0.00
  YS02001920YS02001918    1.00   0.00  0.00  0.00  1.00  0.00  0.00  0.00  0.00  0.00
  YS02001629YS02163301    1.00   0.07  0.01  0.00  0.92  0.00  0.00  0.00  0.00  0.00
  YS02001619YS02001622    1.00   0.06  0.00  0.00  0.94  0.00  0.00  0.00  0.00  0.00
  YS02001622YS02001625    1.00   0.06  0.00  0.00  0.93  0.00  0.00  0.00  0.03  0.00
  YS02001625YS02001629    1.00   0.07  0.02  0.00  0.88  0.00  0.03  0.00  0.00  0.00
  YS02163301YS02001633    1.00   0.00  0.07  0.00  0.93  0.00  0.00  0.00  0.00  0.00
  YS02163601YS02164001    1.00   0.00  0.04  0.00  0.96  0.00  0.00  0.00  0.00  0.00
  YS02164001YS02001641    1.00   0.00  0.04  0.00  0.96  0.00  0.00  0.00  0.05  0.00
  YS02001641YS02001644    1.00   0.00  0.00  0.00  1.00  0.00  0.00  0.00  0.00  0.00
  YS02001647YS02001649    1.00   0.00  0.08  0.00  0.92  0.00  0.00  0.00  0.01  0.00
  YS02006553YS02006556    1.00   0.01  0.00  0.00  0.99  0.00  0.00  0.00  0.03  0.00
  YS02006556YS02006558    1.00   0.00  0.00  0.00  1.00  0.00  0.00  0.00  0.00  0.00
  YSB6556YSB1171          1.00   0.02  0.04  0.00  0.94  0.00  0.00  0.00  0.00  0.00
  YS02001907YS02006553    1.00   0.00  0.01  0.00  0.99  0.00  0.00  0.00  0.00  0.00
  YS02006558YS02006561    1.00   0.09  0.00  0.00  0.00  0.91  0.00  0.00  0.60  0.00
  YS02001633YS02163601    1.00   0.00  0.00  0.00  1.00  0.00  0.00  0.00  0.14  0.00
  YS02001644YS02001647    1.00   0.00  0.08  0.00  0.92  0.00  0.00  0.00  0.00  0.00
  YS02001745YS02001748    1.00   0.00  0.00  0.00  0.85  0.01  0.00  0.14  0.03  0.00
  YS02001748YS02001751    1.00   0.00  0.00  0.00  0.95  0.05  0.00  0.00  0.14  0.00
  YS02001751YS02001754    1.00   0.00  0.00  0.00  0.90  0.00  0.00  0.09  0.01  0.00
  YS02001754YS02001757    1.00   0.00  0.00  0.00  1.00  0.00  0.00  0.00  0.16  0.00
  YS02001882YS02001884    1.00   0.07  0.00  0.00  0.93  0.00  0.00  0.00  0.00  0.00
  YS02001884YS02001887    1.00   0.03  0.03  0.00  0.94  0.00  0.00  0.00  0.00  0.00
  YS02001890YS02001895    1.00   0.00  0.07  0.00  0.92  0.00  0.00  0.00  0.00  0.00
  YS02001895YS02001898    1.00   0.08  0.00  0.00  0.91  0.00  0.02  0.00  0.00  0.00
  YS02001898YS02001901    1.00   0.08  0.00  0.00  0.92  0.00  0.00  0.00  0.01  0.00
  YS02001901YS02001904    1.00   0.08  0.00  0.00  0.92  0.00  0.00  0.00  0.00  0.00
  YS02001904YS02001907    1.00   0.00  0.08  0.00  0.92  0.00  0.00  0.00  0.00  0.00
  YS02001887YS02001890    1.00   0.00  0.00  0.00  0.98  0.00  0.01  0.00  0.00  0.00
  YS02001652YS02001649    1.00   0.00  0.00  0.00  1.00  0.00  0.00  0.00  0.15  0.00
  YS02001655YS02001652    1.00   0.00  0.00  0.00  0.90  0.00  0.00  0.09  0.02  0.00
  YS02001658YS02001655    1.00   0.00  0.07  0.00  0.88  0.05  0.00  0.00  0.02  0.00
  YS02001661YS02001658    1.00   0.07  0.00  0.00  0.85  0.08  0.00  0.00  0.03  0.00
  YS02001664YS02001661    1.00   0.06  0.00  0.00  0.83  0.10  0.00  0.00  0.16  0.00
  YSB1154YSB6556          1.00   0.06  0.00  0.00  0.94  0.00  0.00  0.00  0.01  0.00
  YSB1174YSB1171          1.00   0.02  0.02  0.00  0.95  0.00  0.00  0.00  0.00  0.00
  YSB1171HS02004479       1.00   0.02  0.00  0.00  0.97  0.00  0.00  0.01  0.10  0.00
  HS02004881HS02006253    1.00   0.03  0.00  0.00  0.00  0.00  0.00  0.97  0.00  0.00
  YS02001793JiankangQianchi    1.00   0.00  0.00  0.00  1.00  0.00  0.00  0.00  0.45  0.00
  YS02001757CaochengTiaoxuchi    1.00   0.00  0.11  0.00  0.88  0.00  0.00  0.00  0.00  0.00
  WSF200WS02003060        1.00   0.00  0.14  0.00  0.86  0.00  0.00  0.00  0.55  0.00
  1                       1.00   0.00  0.00  0.00  0.00  1.00  0.00  0.00  0.39  0.00
  
  
  *************************
  Conduit Surcharge Summary
  *************************
  
  ----------------------------------------------------------------------------
                                                           Hours        Hours 
                         --------- Hours Full --------   Above Full   Capacity
  Conduit                Both Ends  Upstream  Dnstream   Normal Flow   Limited
  ----------------------------------------------------------------------------
  WS02006229WS02006228        1.26      1.34      1.26      2.10         1.26
  WS02006256WS02006235        4.98      5.03      6.32      4.51         0.01
  WS02006239WS02006238        0.11      0.11      0.43      0.01         0.01
  WS02006238WS02006235        0.42      0.42      0.53      0.01         0.01
  WS02006235WS02006234        0.15      0.15      0.37      4.71         0.01
  WS02006234WS02006232        0.32      0.32      0.75      0.01         0.01
  WS02006232WS02006231        0.01      0.01      0.75      0.01         0.01
  WS02006231WS02006230        0.01      0.01      0.01      5.28         0.01
  WS02006230WS02006229        1.63      1.82      1.63      5.82         1.62
  WS02006228WS02006109        1.30      1.51      1.30      3.55         1.30
  WS02006112WS02006115        0.01      0.01      0.71      0.01         0.01
  WS02006111WS02006112        0.01      0.01      2.53      0.01         0.01
  WS02006110WS02006113        0.01      0.01      1.44      0.01         0.01
  WS02006109WS02006110        0.51      0.51      1.51      0.51         0.01
  WS02004405WS02004406        0.01      0.01      0.01      0.61         0.01
  WS02004404WS02004405        0.01      0.03      0.01      5.62         0.01
  WS02004403WS02004404        0.01      0.01      0.03      0.01         0.01
  WS02003072WS02003073        0.01      0.01      0.01      4.34         0.01
  YS02001759YS02001757        6.16      6.16      6.20      0.01         0.01
  YS02001762YS02001759        6.15      6.15      6.16      0.01         0.01
  YS02001765YS02001762        6.12      6.12      6.15      0.01         0.01
  YS02001770YS02001767        6.11      6.11      6.11      0.01         0.66
  YS02001774YS02001770        6.10      6.10      6.13      0.01         0.01
  YS02001779YS02001774        5.94      5.94      6.13      0.01         0.01
  YS02001649YS02001757        6.15      6.15      6.20      0.01         0.01
  YS02001767YS02001765        6.11      6.11      6.12      0.01         0.01
  YS02001784YS02001785        0.01      0.01      0.01      1.89         0.01
  YS02001791YS02001793        0.01      0.01      0.38      0.01         0.01
  YS02001910YS02001907        0.01      0.01      1.33      0.01         0.01
  YS02001786YS02001788        0.01      0.01      0.01      1.47         0.01
  YS02001629YS02163301        6.10      6.10      6.10      0.01         0.01
  YS02001619YS02001622        5.76      5.76      5.80      0.01         0.01
  YS02001622YS02001625        5.80      5.80      6.06      0.01         0.01
  YS02001625YS02001629        5.75      5.75      6.06      0.01         0.01
  YS02163301YS02001633        6.10      6.10      6.12      0.01         0.01
  YS02163601YS02164001        6.12      6.12      6.14      0.01         0.01
  YS02164001YS02001641        6.12      6.12      6.13      0.01         0.02
  YS02001641YS02001644        6.13      6.13      6.13      0.34         1.03
  YS02001647YS02001649        6.01      6.01      6.15      0.01         0.01
  YS02006553YS02006556        0.01      0.01      1.41      0.01         0.01
  YS02006556YS02006558        0.72      0.72      1.48      0.01         0.01
  YS02001907YS02006553        1.92      1.92      2.13      0.01         0.01
  YS02006558YS02006561        0.01      0.01      0.01      1.74         0.01
  YS02001633YS02163601        6.12      6.12      6.14      0.01         0.01
  YS02001644YS02001647        6.01      6.01      6.13      0.01         0.01
  YS02001745YS02001748        0.01      0.01      5.48      0.01         0.01
  YS02001748YS02001751        5.55      5.55      5.72      0.01         0.01
  YS02001751YS02001754        5.72      5.72      5.95      0.01         0.01
  YS02001754YS02001757        6.00      6.00      6.20      0.01         0.01
  YS02001904YS02001907        0.01      0.01      1.43      0.01         0.01
  YS02001652YS02001649        6.04      6.04      6.15      0.01         0.01
  YS02001655YS02001652        5.80      5.80      5.98      0.01         0.01
  YS02001658YS02001655        5.50      5.50      5.80      0.01         0.01
  YS02001661YS02001658        0.05      0.05      5.50      0.01         0.01
  YS02001664YS02001661        0.01      0.01      0.40      0.01         0.01
  YS02001793JiankangQianchi        0.01      0.01      7.82      0.01         0.01
  YS02001757CaochengTiaoxuchi        5.44      5.44      6.20      0.01         0.01
  
  
  ***************
  Pumping Summary
  ***************
  
  ---------------------------------------------------------------------------------------------------------
                                                  Min       Avg       Max     Total     Power    % Time Off
                        Percent   Number of      Flow      Flow      Flow    Volume     Usage    Pump Curve
  Pump                 Utilized   Start-Ups       LPS       LPS       LPS  10^6 ltr     Kw-hr    Low   High
  ---------------------------------------------------------------------------------------------------------
  CC-Pump-1                0.00           0      0.00      0.00      0.00     0.000      0.00    0.0    0.0
  CC-Pump-2                0.00           0      0.00      0.00      0.00     0.000      0.00    0.0    0.0
  JK-Pump-1               57.41          10      0.00    300.00    300.00     4.857     53.51    0.0    0.0
  JK-Pump-2               11.77          50      0.00    683.00    683.00     2.267     23.34    0.0  100.0
  XR-Pump-1              100.00           1      0.00     95.00     95.00     2.679     14.48    0.0    0.0
  XR-Pump-2               94.70           1      0.00     95.00     95.00     2.537     13.06    0.0    0.0
  XR-Pump-3               82.03           1      0.00     95.00     95.00     2.198     10.40    0.0    0.0
  XR-Pump-4                0.00           0      0.00      0.00      0.00     0.000      0.00    0.0    0.0
  
  
  ***************************
  Link Pollutant Load Summary
  ***************************
  
  ------------------------------------------------------------------------------------------
                                 COD            SS            TN            TP         NH4-N
  Link                            kg            kg            kg            kg            kg
  ------------------------------------------------------------------------------------------
  WS02003066WSF200           542.052       966.047        16.360         1.525         8.886
  WS02006287WS02006284       192.690       348.294         7.866         0.834         4.503
  WS02006284WS02006280       193.188       349.091         7.913         0.840         4.533
  WS02006280WS02006229       193.158       349.041         7.910         0.840         4.531
  WS02006229WS02006228       541.843       963.572        16.339         1.518         8.870
  WS02006256WS02006235       324.289       566.313         7.979         0.651         4.132
  WS02006253WS02006251        29.423        56.173         0.677         0.051         0.338
  WS02006252WS02006251         0.000         0.000         0.000         0.000         0.000
  WS02006251WS02006249        30.064        57.254         0.729         0.058         0.370
  WS02006249WS02006248        30.011        57.111         0.731         0.058         0.372
  WS02006248WS02006247        30.477        57.926         0.745         0.059         0.379
  WS02006247WS02006245        31.838        60.127         0.798         0.065         0.409
  WS02006245WS02006243        33.817        63.440         0.858         0.070         0.442
  WS02006243WS02006242        37.849        70.103         0.966         0.079         0.497
  WS02006242WS02006240        44.846        81.395         1.171         0.096         0.607
  WS02006240WS02006239        51.561        92.218         1.385         0.116         0.724
  WS02006239WS02006238        58.592       103.411         1.623         0.138         0.854
  WS02006238WS02006235        62.808       109.977         1.770         0.152         0.936
  WS02006235WS02006234       350.481       617.200         8.527         0.689         4.398
  WS02006234WS02006232       350.484       617.303         8.523         0.689         4.395
  WS02006232WS02006231       349.806       616.194         8.498         0.686         4.381
  WS02006231WS02006230       349.707       616.056         8.493         0.686         4.378
  WS02006230WS02006229       350.299       617.304         8.505         0.687         4.384
  WS02006228WS02006109       540.958       962.232        16.267         1.510         8.826
  WS02006116WS02004401       551.051       980.175        16.870         1.582         9.190
  WS02006115WS02006116       551.533       980.838        16.903         1.586         9.210
  WS02006113WS02006111       547.373       972.541        16.921         1.592         9.236
  WS02006112WS02006115       552.232       981.986        16.946         1.591         9.235
  WS02006111WS02006112       547.198       972.320        16.904         1.590         9.226
  WS02006110WS02006113       547.625       972.960        16.939         1.594         9.247
  WS02006109WS02006110       548.625       974.580        17.017         1.604         9.295
  WS02004411WS02004412       544.771       970.445        16.519         1.543         8.981
  WS02004401WS02004402       550.167       978.747        16.820         1.576         9.160
  WS02004413WS02003067       542.668       967.002        16.395         1.529         8.907
  WS02004412WS02004413       543.896       969.082        16.466         1.537         8.949
  WS02004410WS02004411       545.379       971.373        16.558         1.547         9.005
  WS02004409WS02004410       545.901       972.184        16.591         1.551         9.025
  WS02004407WS02004409       546.282       972.732        16.618         1.554         9.041
  WS02004406WS02004407       546.372       972.807        16.627         1.555         9.046
  WS02004405WS02004406       548.313       975.949        16.759         1.571         9.127
  WS02004404WS02004405       549.042       977.003        16.794         1.574         9.147
  WS02004403WS02004404       548.496       976.101        16.722         1.565         9.102
  WS02004402WS02004403       549.341       977.469        16.770         1.571         9.130
  WS02004139WS02001211      1118.701      1816.771        98.045        12.094        60.802
  WS02004138WS02004139      1123.858      1825.167        98.483        12.148        61.073
  WS02003067WS02003066       542.127       966.166        16.365         1.525         8.889
  WS02001213WS02003059      1154.011      1872.958       101.557        12.535        63.003
  WS02001212WS02001213      1160.861      1884.089       102.148        12.608        63.369
  WS02001211WS02001212      1163.139      1887.754       102.358        12.634        63.500
  WS02003072WS02003073      1796.936      3000.247       127.734        15.289        78.031
  WS02003069WS02003072      1801.727      3007.929       128.180        15.344        78.309
  WS02003060WS02003069      1803.380      3010.617       128.302        15.359        78.383
  WS02003059WS02003060      1151.318      1868.563       101.332        12.507        62.864
  HS02004901HS02004770         6.587        12.285         0.126         0.009         0.059
  HS02004876HS02004881        24.756        47.129         0.595         0.046         0.299
  HS02004870HS02004876        18.724        35.517         0.488         0.039         0.249
  HS02004842HS02004848         3.653         6.695         0.078         0.005         0.036
  HS02004837HS02004842         8.307        14.098         0.549         0.065         0.332
  HS02004830HS02004837        58.065        97.483         4.414         0.536         2.717
  HS02004824HS02004830        58.815        98.685         4.486         0.545         2.761
  HS02004817HS02004824        73.077       126.117         4.785         0.563         2.907
  HS02004770HS02004777        25.088        47.239         0.530         0.035         0.242
  HS02004799HS02004480        88.831       161.663         2.850         0.275         1.542
  HS02004792HS02004799        80.825       145.800         2.749         0.272         1.503
  HS02004788HS02004792        48.377        87.185         1.985         0.207         1.121
  HS02004785HS02004788        26.488        49.470         0.676         0.054         0.335
  HS02004777HS02004785        25.814        48.388         0.614         0.046         0.296
  HS02004480HS02004478       111.500       205.218         3.195         0.297         1.699
  HS02004479HS02004480        26.261        49.340         0.652         0.060         0.347
  HS02004862HS02004870        13.887        25.847         0.393         0.033         0.203
  HS02004848HS02004852         4.921         9.099         0.104         0.007         0.048
  HS02004856HS02004862         8.938        17.022         0.182         0.012         0.085
  HS02004852HS02004856         4.935         9.124         0.104         0.007         0.048
  HS02004802HS02004478        82.216       144.766         4.740         0.545         2.846
  HS02004478WS02006287       192.886       348.611         7.884         0.836         4.515
  HS02004817HS02004807        71.695       123.937         4.641         0.545         2.816
  HS02004807HS02004802        82.357       144.974         4.770         0.549         2.866
  YS02001759YS02001757       233.426       414.173         4.813         0.333         2.363
  YS02001762YS02001759       118.964       212.545         2.628         0.187         1.311
  YS02001765YS02001762       118.976       212.886         2.653         0.189         1.326
  YS02001770YS02001767       117.912       212.067         2.446         0.160         1.191
  YS02001774YS02001770        83.937       152.788         1.704         0.111         0.826
  YS02001779YS02001774        83.250       151.449         1.790         0.124         0.886
  YS02001649YS02001757       339.872       592.475         7.079         0.490         3.430
  YS02001767YS02001765       119.417       213.969         2.682         0.192         1.343
  YS02006561YS02001783       621.496      1101.810        13.993         1.081         7.085
  YS02001783YS02001784       621.428      1101.724        13.989         1.081         7.083
  YS02001784YS02001785       628.788      1113.525        14.702         1.170         7.528
  YS02001788YS02001790       629.435      1114.594        14.774         1.179         7.574
  YS02001790YS02001791       630.409      1116.166        14.872         1.192         7.635
  YS02001791YS02001793       630.385      1116.144        14.872         1.192         7.635
  YS02001910YS02001907       208.151       363.178         5.872         0.488         3.114
  YS02001786YS02001788       629.003      1113.884        14.730         1.174         7.546
  YS02001915YS02001910       208.196       363.219         5.835         0.483         3.089
  YS02001918YS02001915       100.515       167.522         3.544         0.354         1.995
  YS02001923YS02001920        80.627       135.762         1.599         0.111         0.778
  YS02001926YS02001923        80.286       135.223         1.560         0.106         0.754
  YS02001929YS02001926        80.052       134.837         1.529         0.102         0.734
  YS02001920YS02001918       100.525       167.600         3.517         0.351         1.977
  YS02001629YS02163301        86.536       150.069         1.836         0.117         0.853
  YS02001619YS02001622        89.278       154.317         1.903         0.121         0.883
  YS02001622YS02001625        88.267       152.764         1.878         0.119         0.872
  YS02001625YS02001629        87.092       150.998         1.849         0.118         0.859
  YS02163301YS02001633        87.268       151.352         1.847         0.118         0.859
  YS02163601YS02164001       241.412       416.655         4.893         0.342         2.338
  YS02164001YS02001641       241.274       416.435         4.880         0.340         2.330
  YS02001641YS02001644       242.015       417.676         4.887         0.341         2.333
  YS02001647YS02001649       337.759       585.691         7.078         0.489         3.428
  YS02006553YS02006556       448.740       792.995        10.372         0.825         5.314
  YS02006556YS02006558       448.992       793.469        10.339         0.819         5.291
  YSB6556YSB1171              14.809        27.961         0.317         0.027         0.163
  YS02001907YS02006553       448.700       792.919        10.402         0.829         5.334
  YS02006558YS02006561       621.534      1101.865        13.994         1.081         7.085
  YS02001633YS02163601       241.949       417.464         4.869         0.337         2.320
  YS02001644YS02001647       341.495       592.689         7.135         0.493         3.454
  YS02001745YS02001748       134.517       237.321         3.540         0.276         1.839
  YS02001748YS02001751       133.100       234.236         3.724         0.304         1.966
  YS02001751YS02001754       132.226       232.838         3.708         0.304         1.960
  YS02001754YS02001757       133.040       234.094         3.871         0.326         2.065
  YS02001882YS02001884         2.159         3.680         0.043         0.003         0.022
  YS02001884YS02001887         5.351         9.291         0.105         0.008         0.052
  YS02001890YS02001895       241.553       431.191         4.548         0.342         2.228
  YS02001895YS02001898       241.386       430.953         4.542         0.341         2.225
  YS02001898YS02001901       241.296       430.835         4.539         0.341         2.223
  YS02001901YS02001904       241.237       430.778         4.549         0.342         2.230
  YS02001904YS02001907       241.589       431.367         4.604         0.349         2.266
  YS02001887YS02001890       242.355       432.417         4.602         0.348         2.261
  YS02001652YS02001649        91.342       159.517         1.956         0.140         0.915
  YS02001655YS02001652        92.265       160.971         1.981         0.142         0.927
  YS02001658YS02001655        92.063       160.601         1.902         0.131         0.875
  YS02001661YS02001658        93.516       163.018         1.935         0.133         0.890
  YS02001664YS02001661       104.445       182.058         2.162         0.149         0.994
  YSB1154YSB6556              14.383        27.269         0.270         0.021         0.134
  YSB1174YSB1171               9.936        18.930         0.208         0.017         0.105
  YSB1171HS02004479           26.193        49.214         0.658         0.061         0.351
  HS02004881HS02006253        27.935        53.346         0.654         0.049         0.327
  YS02001793JiankangQianchi       634.632      1123.389        15.006         1.204         7.709
  YS02001757CaochengTiaoxuchi       348.809       622.981         7.824         0.605         3.930
  WSF200WS02003060           541.662       965.446        16.339         1.522         8.873
  1                         1804.100      3011.576       128.544        15.392        78.543
  CC-Pump-1                    0.000         0.000         0.000         0.000         0.000
  CC-Pump-2                    0.000         0.000         0.000         0.000         0.000
  JK-Pump-1                  393.347       687.552         9.643         0.785         4.990
  JK-Pump-2                  226.373       412.255         4.759         0.358         2.376
  XR-Pump-1                  396.458       643.352        34.916         4.310        21.662
  XR-Pump-2                  389.418       632.087        34.240         4.226        21.240
  XR-Pump-3                  340.424       553.697        29.537         3.638        18.301
  XR-Pump-4                    0.000         0.000         0.000         0.000         0.000
  

  Analysis begun on:  Sat Jul 10 15:54:33 2021
  Analysis ended on:  Sat Jul 10 15:54:35 2021
  Total elapsed time: 00:00:02