
  EPA STORM WATER MANAGEMENT MODEL - VERSION 5.1 (Build 5.3.0.dev0)
  --------------------------------------------------------------

  WARNING 04: minimum elevation drop used for Conduit WS02004404WS02004405
  WARNING 03: negative offset ignored for Link YS02001904YS02001907
  
  *********************************************************
  NOTE: The summary statistics displayed in this report are
  based on results found at every computational time step,  
  not just on results from each reporting time step.
  *********************************************************
  
  ****************
  Analysis Options
  ****************
  Flow Units ............... LPS
  Process Models:
    Rainfall/Runoff ........ YES
    RDII ................... NO
    Snowmelt ............... NO
    Groundwater ............ NO
    Flow Routing ........... YES
    Ponding Allowed ........ NO
    Water Quality .......... NO
  Infiltration Method ...... HORTON
  Flow Routing Method ...... DYNWAVE
  Surcharge Method ......... EXTRAN
  Starting Date ............ 08/28/2015 08:00:00
  Ending Date .............. 08/28/2015 15:50:00
  Antecedent Dry Days ...... 8.0
  Report Time Step ......... 00:01:00
  Wet Time Step ............ 00:01:00
  Dry Time Step ............ 00:01:00
  Routing Time Step ........ 5.00 sec
  Variable Time Step ....... YES
  Maximum Trials ........... 8
  Number of Threads ........ 4
  Head Tolerance ........... 0.001500 m
  
  
  **************************        Volume         Depth
  Runoff Quantity Continuity     hectare-m            mm
  **************************     ---------       -------
  Total Precipitation ......         1.673         3.664
  Evaporation Loss .........         0.000         0.000
  Infiltration Loss ........         0.410         0.897
  Surface Runoff ...........         0.497         1.088
  Final Storage ............         0.767         1.679
  Continuity Error (%) .....        -0.016
  
  
  **************************        Volume        Volume
  Flow Routing Continuity        hectare-m      10^6 ltr
  **************************     ---------     ---------
  Dry Weather Inflow .......         0.616         6.165
  Wet Weather Inflow .......         0.497         4.965
  Groundwater Inflow .......         0.000         0.000
  RDII Inflow ..............         0.000         0.000
  External Inflow ..........         0.102         1.024
  External Outflow .........         1.034        10.343
  Flooding Loss ............         0.057         0.571
  Evaporation Loss .........         0.000         0.000
  Exfiltration Loss ........         0.000         0.000
  Initial Stored Volume ....         0.076         0.761
  Final Stored Volume ......         0.204         2.043
  Continuity Error (%) .....        -0.332
  
  
  *************************
  Highest Continuity Errors
  *************************
  Node HS02004842 (40.81%)
  Node YS02001884 (34.67%)
  Node YS02001774 (18.68%)
  Node YSB1171 (12.57%)
  Node HS02004901 (10.82%)
  
  
  ***************************
  Time-Step Critical Elements
  ***************************
  Link WS02006252WS02006251 (87.95%)
  Link WS02006280WS02006229 (4.14%)
  Link 3 (3.19%)
  
  
  ********************************
  Highest Flow Instability Indexes
  ********************************
  Link WS02006113WS02006111 (55)
  Link WS02006111WS02006112 (34)
  Link YS02001754YS02001757 (3)
  Link YS02001751YS02001754 (3)
  Link YS02001762YS02001759 (3)
  
  
  *************************
  Routing Time Step Summary
  *************************
  Minimum Time Step           :     0.16 sec
  Average Time Step           :     1.14 sec
  Maximum Time Step           :     5.00 sec
  Percent in Steady State     :    -0.00
  Average Iterations per Step :     2.00
  Percent Not Converging      :     0.00
  
  
  ***************************
  Subcatchment Runoff Summary
  ***************************
  
  ------------------------------------------------------------------------------------------------------------------------------
                            Total      Total      Total      Total     Imperv       Perv      Total       Total     Peak  Runoff
                           Precip      Runon       Evap      Infil     Runoff     Runoff     Runoff      Runoff   Runoff   Coeff
  Subcatchment                 mm         mm         mm         mm         mm         mm         mm    10^6 ltr      LPS
  ------------------------------------------------------------------------------------------------------------------------------
  sub0                       3.66       0.00       0.00       0.26       2.14       0.00       2.14        0.00     0.58   0.585
  sub1                       3.66       0.00       0.00       0.40       2.01       0.00       2.01        0.01     3.00   0.548
  sub2                       3.66       0.00       0.00       1.36       1.41       0.00       1.41        0.01     2.64   0.384
  sub3                       3.66       0.00       0.00       1.36       1.38       0.00       1.38        0.03     5.41   0.375
  sub4                       3.66       0.00       0.00       0.40       1.89       0.00       1.89        0.04     6.04   0.515
  sub5                       3.66       0.00       0.00       0.26       2.10       0.00       2.10        0.02     5.33   0.573
  sub7                       3.66       0.00       0.00       0.33       2.08       0.00       2.08        0.01     1.89   0.568
  sub8                       3.66       0.00       0.00       0.33       2.07       0.00       2.07        0.01     3.33   0.565
  sub9                       3.66       0.00       0.00       0.33       2.07       0.00       2.07        0.01     2.46   0.565
  sub10                      3.66       0.00       0.00       0.29       2.08       0.00       2.08        0.02     5.32   0.568
  sub11                      3.66       0.00       0.00       0.29       2.10       0.00       2.10        0.02     6.26   0.572
  sub12                      3.66       0.00       0.00       0.48       2.00       0.00       2.00        0.02     5.33   0.546
  sub14                      3.66       0.00       0.00       0.33       2.07       0.00       2.07        0.02     4.81   0.564
  sub15                      3.66       0.00       0.00       1.10       1.59       0.00       1.59        0.03     6.53   0.433
  sub16                      3.66       0.00       0.00       1.21       1.54       0.00       1.54        0.02     4.68   0.419
  sub17                      3.66       0.00       0.00       1.17       1.56       0.00       1.56        0.01     3.77   0.425
  sub22                      3.66       0.00       0.00       1.58       1.30       0.00       1.30        0.08    21.43   0.355
  sub23                      3.66       0.00       0.00       1.36       1.44       0.00       1.44        0.07    18.25   0.393
  sub60                      3.66       0.00       0.00       0.44       1.17       0.00       1.17        0.36    28.99   0.320
  sub61                      3.66       0.00       0.00       0.62       1.31       0.00       1.31        0.40    37.39   0.358
  sub62                      3.66       0.00       0.00       0.29       1.39       0.00       1.39        0.43    37.98   0.379
  sub63                      3.66       0.00       0.00       1.06       1.19       0.00       1.19        0.36    35.07   0.324
  sub64                      3.66       0.00       0.00       0.55       1.12       0.00       1.12        0.34    27.46   0.305
  sub65                      3.66       0.00       0.00       0.48       1.13       0.00       1.13        0.35    27.79   0.308
  sub66                      3.66       0.00       0.00       1.06       0.99       0.00       0.99        0.30    25.45   0.270
  sub67                      3.66       0.00       0.00       0.29       1.59       0.00       1.59        0.49    49.44   0.433
  sub68                      3.66       0.00       0.00       0.51       1.41       0.00       1.41        0.43    41.48   0.385
  sub69                      3.66       0.00       0.00       0.55       1.59       0.00       1.59        0.37    41.71   0.433
  sub70                      3.66       1.62       0.00       1.80       1.76       0.00       1.76        0.40    29.67   0.333
  sub71                      3.66       0.00       0.00       0.29       1.31       0.00       1.31        0.31    26.25   0.356
  sub72                      3.66       0.00       0.00       0.26       0.84       0.00       0.84        0.17    11.65   0.230
  sub73                      3.66       1.71       0.00       1.83       1.67       0.00       1.67        0.39    25.36   0.311
  sub74                      3.66       0.00       0.00       2.75       0.49       0.00       0.49        0.19    23.37   0.132
  
  
  ******************
  Node Depth Summary
  ******************
  
  ---------------------------------------------------------------------------------
                                 Average  Maximum  Maximum  Time of Max    Reported
                                   Depth    Depth      HGL   Occurrence   Max Depth
  Node                 Type       Meters   Meters   Meters  days hr:min      Meters
  ---------------------------------------------------------------------------------
  WS02001211           JUNCTION     0.60     0.67     5.51     0  00:22        0.67
  WS02001212           JUNCTION     0.33     0.39     5.45     0  00:22        0.39
  WS02001213           JUNCTION     0.54     0.60     5.36     0  03:17        0.60
  WS02003069           JUNCTION     0.36     0.44     5.03     0  03:17        0.44
  WS02003072           JUNCTION     0.43     0.51     4.88     0  03:17        0.51
  WS02003073           JUNCTION     0.25     0.31     4.37     0  03:18        0.31
  WS02003060           JUNCTION     0.32     0.39     5.33     0  03:16        0.39
  WS02003066           JUNCTION     0.19     0.26     5.81     0  03:14        0.26
  WS02003059           JUNCTION     0.60     0.67     5.35     0  03:17        0.67
  WS02003067           JUNCTION     0.49     0.63     5.95     0  03:14        0.63
  WS02004401           JUNCTION     0.57     0.72     6.72     0  03:10        0.72
  WS02004402           JUNCTION     0.60     0.75     6.71     0  03:10        0.75
  WS02004403           JUNCTION     0.62     0.77     6.70     0  03:10        0.77
  WS02004404           JUNCTION     0.70     0.85     6.70     0  03:10        0.85
  WS02004406           JUNCTION     0.71     0.86     6.69     0  03:10        0.86
  WS02004409           JUNCTION     0.38     0.54     6.31     0  03:13        0.54
  WS02004410           JUNCTION     0.41     0.56     6.28     0  03:13        0.56
  WS02004411           JUNCTION     0.43     0.58     6.26     0  03:13        0.58
  WS02004412           JUNCTION     0.45     0.59     6.23     0  03:14        0.59
  WS02004413           JUNCTION     0.61     0.76     6.23     0  03:14        0.76
  WS02004405           JUNCTION     0.70     0.85     6.70     0  03:10        0.85
  WS02006109           JUNCTION     0.63     0.79     7.41     0  03:06        0.79
  WS02006110           JUNCTION     0.64     0.79     7.37     0  03:06        0.79
  WS02006111           JUNCTION     0.17     0.24     6.94     0  03:06        0.24
  WS02006112           JUNCTION     0.72     0.89     6.78     0  03:09        0.89
  WS02006113           JUNCTION     0.26     0.37     7.26     0  03:06        0.37
  WS02006115           JUNCTION     0.45     0.61     6.75     0  03:09        0.61
  WS02006116           JUNCTION     0.53     0.69     6.73     0  03:10        0.69
  WS02006230           JUNCTION     0.55     0.76     7.51     0  03:06        0.76
  WS02006231           JUNCTION     0.36     0.50     7.62     0  03:08        0.50
  WS02006232           JUNCTION     0.49     0.64     7.68     0  03:09        0.64
  WS02006234           JUNCTION     0.39     0.56     7.71     0  03:09        0.56
  WS02006235           JUNCTION     0.42     0.59     7.75     0  03:09        0.59
  WS02006238           JUNCTION     0.44     0.61     7.76     0  03:09        0.61
  WS02006240           JUNCTION     0.33     0.50     7.80     0  03:10        0.50
  WS02006242           JUNCTION     0.38     0.56     7.83     0  03:10        0.56
  WS02006243           JUNCTION     0.26     0.43     7.85     0  03:10        0.43
  WS02006245           JUNCTION     0.26     0.41     7.90     0  03:09        0.41
  WS02006247           JUNCTION     0.29     0.44     7.94     0  03:09        0.44
  WS02006248           JUNCTION     0.24     0.38     7.96     0  03:08        0.38
  WS02006249           JUNCTION     0.28     0.42     8.01     0  03:07        0.42
  WS02006239           JUNCTION     0.39     0.57     7.78     0  03:09        0.57
  WS02006251           JUNCTION     0.27     0.40     8.07     0  03:04        0.40
  WS02006252           JUNCTION     0.24     0.35     8.59     0  02:59        0.35
  WS02006253           JUNCTION     0.29     0.43     8.07     0  03:05        0.43
  WS02006256           JUNCTION     0.80     1.15     8.09     0  00:00        1.10
  WS02004138           JUNCTION     0.14     0.17     7.42     0  00:20        0.17
  WS02004407           JUNCTION     0.17     0.24     6.56     0  03:11        0.24
  WS02006228           JUNCTION     0.61     0.79     7.44     0  03:06        0.79
  WS02006229           JUNCTION     0.57     0.76     7.46     0  03:06        0.76
  WS02006280           JUNCTION     0.04     0.10     8.37     0  02:28        0.10
  WS02006284           JUNCTION     0.33     0.41     8.81     0  02:28        0.41
  WS02006287           JUNCTION     0.06     0.14     9.09     0  02:28        0.14
  WSF200               JUNCTION     0.17     0.25     5.48     0  03:14        0.25
  HS02004901           JUNCTION     0.10     0.17     9.99     0  02:26        0.17
  HS02004881           JUNCTION     0.00     0.01     9.04     0  02:28        0.01
  HS02004876           JUNCTION     0.03     0.07     9.10     0  02:28        0.07
  HS02004870           JUNCTION     0.01     0.02     9.31     0  02:27        0.02
  HS02004862           JUNCTION     0.01     0.03     9.41     0  02:29        0.03
  HS02004856           JUNCTION     0.07     0.09     9.51     0  02:28        0.09
  HS02004852           JUNCTION     0.00     0.01     9.53     0  02:29        0.01
  HS02004848           JUNCTION     0.00     0.01     9.61     0  02:25        0.01
  HS02004842           JUNCTION     0.32     0.34     9.61     0  02:25        0.34
  HS02004837           JUNCTION     0.02     0.03     9.61     0  02:25        0.03
  HS02004830           JUNCTION     0.03     0.05     9.52     0  02:26        0.05
  HS02004824           JUNCTION     0.02     0.03     9.43     0  02:29        0.03
  HS02004817           JUNCTION     0.41     0.47     9.32     0  02:28        0.47
  HS02004807           JUNCTION     0.10     0.15     9.32     0  02:28        0.15
  HS02004802           JUNCTION     0.14     0.19     9.32     0  02:28        0.19
  HS02004799           JUNCTION     0.08     0.17     9.38     0  02:26        0.17
  HS02004792           JUNCTION     0.02     0.05     9.58     0  02:25        0.05
  HS02004788           JUNCTION     0.01     0.04     9.94     0  02:27        0.04
  HS02004785           JUNCTION     0.03     0.08     9.98     0  02:27        0.08
  HS02004777           JUNCTION     0.12     0.19     9.99     0  02:26        0.19
  HS02004770           JUNCTION     0.09     0.16     9.99     0  02:27        0.16
  HS02004480           JUNCTION     0.05     0.13     9.37     0  02:27        0.13
  HS02004479           JUNCTION     0.09     0.16     9.37     0  02:27        0.16
  HS02004478           JUNCTION     0.04     0.08     9.31     0  02:28        0.08
  YS02001745           JUNCTION     0.05     0.07     7.59     0  03:01        0.07
  YS02001748           JUNCTION     0.06     0.08     7.16     0  03:01        0.08
  YS02001751           JUNCTION     0.16     0.26     7.14     0  03:15        0.26
  YS02001754           JUNCTION     0.41     0.54     7.14     0  03:15        0.53
  YS02001762           JUNCTION     0.60     0.74     7.14     0  03:07        0.73
  YS02001765           JUNCTION     0.55     0.69     7.14     0  03:07        0.68
  YS02001767           JUNCTION     0.52     0.65     7.14     0  03:07        0.65
  YS02001770           JUNCTION     0.51     0.64     7.14     0  03:06        0.64
  YS02001774           JUNCTION     0.58     0.71     7.14     0  03:06        0.71
  YS02001779           JUNCTION     0.34     0.45     7.14     0  03:08        0.45
  YS02001882           JUNCTION     0.20     0.29     7.01     0  03:02        0.29
  YS02001884           JUNCTION     0.30     0.39     7.01     0  03:01        0.39
  YS02001759           JUNCTION     0.63     0.77     7.14     0  03:10        0.77
  YS02001887           JUNCTION     0.37     0.47     7.01     0  03:01        0.47
  YS02001890           JUNCTION     0.40     0.50     7.01     0  03:02        0.50
  YS02001898           JUNCTION     0.18     0.26     6.99     0  03:02        0.26
  YS02001901           JUNCTION     0.29     0.38     6.99     0  03:02        0.38
  YS02001904           JUNCTION     0.27     0.36     6.99     0  03:02        0.36
  YS02001907           JUNCTION     0.59     0.70     6.99     0  03:02        0.70
  YS02001910           JUNCTION     0.39     0.48     6.99     0  03:02        0.48
  YS02001915           JUNCTION     0.19     0.27     6.99     0  03:02        0.27
  YS02001918           JUNCTION     0.05     0.06     7.13     0  03:05        0.06
  YS02001619           JUNCTION     0.13     0.21     7.14     0  03:03        0.21
  YS02001629           JUNCTION     0.46     0.59     7.14     0  03:10        0.59
  YS02001641           JUNCTION     0.57     0.70     7.14     0  03:11        0.70
  YS02001644           JUNCTION     0.57     0.70     7.14     0  03:10        0.70
  YS02001652           JUNCTION     0.42     0.54     7.14     0  03:05        0.54
  YS02001655           JUNCTION     0.19     0.29     7.14     0  03:06        0.29
  YS02001920           JUNCTION     0.14     0.15     7.16     0  03:04        0.15
  YS02001923           JUNCTION     0.04     0.05     7.31     0  03:03        0.05
  YS02001926           JUNCTION     0.10     0.12     7.57     0  03:02        0.12
  YS02001929           JUNCTION     0.04     0.05     7.75     0  03:01        0.05
  YS02001658           JUNCTION     0.05     0.09     7.23     0  02:58        0.09
  YS02001661           JUNCTION     0.12     0.15     7.56     0  02:58        0.15
  YS02001664           JUNCTION     0.05     0.07     8.00     0  02:58        0.07
  YS02001622           JUNCTION     0.15     0.23     7.14     0  03:11        0.23
  YS02001633           JUNCTION     0.55     0.68     7.14     0  03:10        0.68
  YS02001649           JUNCTION     0.61     0.74     7.13     0  03:08        0.74
  YS02001757           JUNCTION     0.73     0.87     7.14     0  03:12        0.87
  YS02001895           JUNCTION     0.17     0.25     7.00     0  03:02        0.25
  YS02001625           JUNCTION     0.42     0.53     7.14     0  03:11        0.53
  YS02163301           JUNCTION     0.49     0.62     7.14     0  03:09        0.62
  YS02163601           JUNCTION     0.61     0.74     7.14     0  03:10        0.74
  YS02164001           JUNCTION     0.55     0.68     7.14     0  03:11        0.68
  YS02001647           JUNCTION     0.41     0.52     7.13     0  03:08        0.52
  YSB1154              JUNCTION     0.22     0.31     9.37     0  02:27        0.31
  YSB6556              JUNCTION     0.12     0.20     9.37     0  02:26        0.20
  YSB1174              JUNCTION     0.17     0.26     9.37     0  02:27        0.26
  YSB1171              JUNCTION     0.37     0.47     9.37     0  02:27        0.47
  YS02006553           JUNCTION     0.60     0.71     6.99     0  03:02        0.71
  YS02006561           JUNCTION     0.10     0.14     6.80     0  03:02        0.14
  YS02006556           JUNCTION     0.57     0.68     6.99     0  03:02        0.68
  YS02006558           JUNCTION     0.62     0.72     6.99     0  03:02        0.72
  YS02001783           JUNCTION     0.16     0.24     6.38     0  03:02        0.24
  YS02001784           JUNCTION     0.19     0.28     6.35     0  03:02        0.28
  YS02001786           JUNCTION     0.17     0.24     6.27     0  03:03        0.24
  YS02001788           JUNCTION     0.12     0.17     6.15     0  03:03        0.17
  YS02001790           JUNCTION     0.14     0.21     5.85     0  03:04        0.21
  YS02001791           JUNCTION     0.09     0.14     5.61     0  03:04        0.14
  YS02001793           JUNCTION     0.06     0.09     4.92     0  03:04        0.09
  WS02004139           JUNCTION     0.54     0.61     5.52     0  00:22        0.61
  WSC                  OUTFALL      0.25     0.31     0.98     0  03:18        0.31
  3                    OUTFALL      0.01     0.13     6.13     0  00:00        0.10
  4                    OUTFALL      0.00     0.00     7.00     0  00:00        0.00
  5                    OUTFALL      0.00     0.00     5.00     0  00:00        0.00
  JK-storage           STORAGE      0.05     3.00     3.80     0  00:00        2.70
  CC-storage           STORAGE      0.00     0.00     7.00     0  03:24        0.00
  XR-storage           STORAGE      7.41     7.72     5.72     0  03:16        7.72
  
  
  *******************
  Node Inflow Summary
  *******************
  
  -------------------------------------------------------------------------------------------------
                                  Maximum  Maximum                  Lateral       Total        Flow
                                  Lateral    Total  Time of Max      Inflow      Inflow     Balance
                                   Inflow   Inflow   Occurrence      Volume      Volume       Error
  Node                 Type           LPS      LPS  days hr:min    10^6 ltr    10^6 ltr     Percent
  -------------------------------------------------------------------------------------------------
  WS02001211           JUNCTION      7.35   279.51     0  00:20       0.207        5.51       0.580
  WS02001212           JUNCTION      0.00   270.94     0  00:21           0        5.48       0.286
  WS02001213           JUNCTION      0.00   270.44     0  00:22           0        5.46       0.341
  WS02003069           JUNCTION      0.32   580.65     0  03:16     0.00902        10.2       0.191
  WS02003072           JUNCTION      0.00   580.64     0  03:17           0        10.2       0.254
  WS02003073           JUNCTION      1.82   582.46     0  03:18      0.0514        10.2       0.270
  WS02003060           JUNCTION     16.53   580.33     0  03:16       0.466        10.2       0.185
  WS02003066           JUNCTION      0.00   367.10     0  03:14           0        4.32       0.064
  WS02003059           JUNCTION      0.00   266.59     0  00:24           0        5.45       0.617
  WS02003067           JUNCTION      0.00   367.10     0  03:14           0        4.32       0.150
  WS02004401           JUNCTION      0.00   368.20     0  03:08           0        4.49       0.338
  WS02004402           JUNCTION      0.00   368.00     0  03:09           0        4.47       0.331
  WS02004403           JUNCTION      0.00   367.88     0  03:09           0        4.46       0.311
  WS02004404           JUNCTION      0.16   367.98     0  03:10     0.00457        4.45       0.246
  WS02004406           JUNCTION      0.00   367.96     0  03:10           0        4.42       0.605
  WS02004409           JUNCTION      0.00   367.94     0  03:11           0        4.39       0.198
  WS02004410           JUNCTION      0.00   367.63     0  03:11           0        4.38       0.241
  WS02004411           JUNCTION      0.00   367.39     0  03:12           0        4.37       0.263
  WS02004412           JUNCTION      0.00   367.23     0  03:13           0        4.36       0.306
  WS02004413           JUNCTION      0.00   367.13     0  03:13           0        4.35       0.485
  WS02004405           JUNCTION      0.04   367.99     0  03:10     0.00107        4.44       0.368
  WS02006109           JUNCTION      1.23   368.26     0  03:06      0.0347        4.56       0.370
  WS02006110           JUNCTION      0.00   368.25     0  03:06           0        4.54       0.303
  WS02006111           JUNCTION      0.00   375.27     0  03:06           0        4.52       0.056
  WS02006112           JUNCTION      3.77   369.92     0  03:06      0.0134        4.53       0.491
  WS02006113           JUNCTION      0.00   368.27     0  03:06           0        4.53       0.113
  WS02006115           JUNCTION      0.00   369.01     0  03:07           0        4.51       0.269
  WS02006116           JUNCTION      0.00   368.52     0  03:07           0         4.5       0.269
  WS02006230           JUNCTION     10.28   314.08     0  03:13        0.29        3.99       0.218
  WS02006231           JUNCTION      0.00   303.60     0  03:12           0        3.71       0.173
  WS02006232           JUNCTION      0.00   303.50     0  03:12           0        3.72       0.293
  WS02006234           JUNCTION      0.00   303.40     0  03:11           0        3.72       0.077
  WS02006235           JUNCTION      0.00   303.36     0  03:11           0        3.76       0.183
  WS02006238           JUNCTION      0.00   208.39     0  03:11           0        2.33       0.165
  WS02006240           JUNCTION      0.00   208.28     0  03:10           0        2.31       0.195
  WS02006242           JUNCTION      0.00   208.33     0  03:08           0        2.31       0.268
  WS02006243           JUNCTION      0.00   208.56     0  03:05           0         2.3       0.120
  WS02006245           JUNCTION      0.00   208.82     0  03:04           0        2.31       0.143
  WS02006247           JUNCTION      0.00   209.09     0  03:04           0        2.31       0.123
  WS02006248           JUNCTION      0.00   209.37     0  03:02           0        2.31       0.047
  WS02006249           JUNCTION      0.00   209.73     0  03:01           0        2.31       0.216
  WS02006239           JUNCTION      0.00   208.31     0  03:11           0        2.32       0.212
  WS02006251           JUNCTION      0.08   210.40     0  03:00     0.00217        2.33       0.151
  WS02006252           JUNCTION      0.00   200.00     0  02:59           0        2.24       0.010
  WS02006253           JUNCTION      0.58    15.92     0  02:27     0.00173      0.0855       1.420
  WS02006256           JUNCTION      0.00   300.00     0  00:00           0        1.64       0.139
  WS02004138           JUNCTION      0.00   284.79     0  00:20           0        5.33       0.061
  WS02004407           JUNCTION      0.00   367.95     0  03:10           0        4.39       0.094
  WS02006228           JUNCTION      0.00   367.04     0  03:05           0        4.53       0.231
  WS02006229           JUNCTION      0.00   367.05     0  03:05           0        4.54       0.189
  WS02006280           JUNCTION      0.00    90.52     0  02:28           0       0.557       0.013
  WS02006284           JUNCTION      0.10    90.52     0  02:28      0.0027       0.558       0.210
  WS02006287           JUNCTION      0.00    90.43     0  02:28           0       0.556       0.125
  WSF200               JUNCTION      0.00   367.10     0  03:14           0        4.32       0.053
  HS02004901           JUNCTION      4.68     4.68     0  02:17      0.0161      0.0162      12.135
  HS02004881           JUNCTION      1.89    15.48     0  02:27       0.007      0.0721       0.230
  HS02004876           JUNCTION      3.00    13.84     0  02:26      0.0133      0.0656       0.789
  HS02004870           JUNCTION      3.33    10.91     0  02:26      0.0132      0.0524       0.201
  HS02004862           JUNCTION      2.84     7.81     0  02:27      0.0187      0.0393       0.422
  HS02004856           JUNCTION      2.46     5.00     0  02:26     0.00995       0.022       6.987
  HS02004852           JUNCTION      0.00     2.69     0  02:27           0      0.0121       0.383
  HS02004848           JUNCTION      5.41     5.41     0  02:29      0.0309      0.0309       0.133
  HS02004842           JUNCTION      0.00     4.47     0  00:03           0      0.0319      68.938
  HS02004837           JUNCTION     11.67    14.30     0  02:24       0.202       0.221       0.370
  HS02004830           JUNCTION      0.15    14.44     0  02:25     0.00423       0.211       0.586
  HS02004824           JUNCTION      6.09    20.47     0  02:29      0.0408       0.251       0.215
  HS02004817           JUNCTION      0.60    21.06     0  02:29      0.0169       0.267       6.649
  HS02004807           JUNCTION      6.26    26.79     0  02:28      0.0244       0.275       1.560
  HS02004802           JUNCTION      0.00    26.82     0  02:30           0       0.271       1.518
  HS02004799           JUNCTION      4.81    54.23     0  02:25      0.0197       0.262       0.861
  HS02004792           JUNCTION     21.71    49.57     0  02:25        0.09       0.243       0.172
  HS02004788           JUNCTION      8.20    29.09     0  02:26      0.0744       0.154       0.255
  HS02004785           JUNCTION      0.15    21.21     0  02:26     0.00423      0.0821       0.581
  HS02004777           JUNCTION      0.03    21.44     0  02:23    0.000846      0.0823       6.698
  HS02004770           JUNCTION     18.25    22.20     0  02:20      0.0686      0.0831       3.876
  HS02004480           JUNCTION      0.00    63.80     0  02:26           0       0.301       0.218
  HS02004479           JUNCTION      0.00     9.75     0  02:29           0      0.0508       1.452
  HS02004478           JUNCTION      0.00    90.43     0  02:28           0       0.556       0.122
  YS02001745           JUNCTION     28.99    28.99     0  03:01       0.355       0.355       0.086
  YS02001748           JUNCTION      0.04    29.02     0  03:01     0.00127       0.356       0.042
  YS02001751           JUNCTION      0.01    53.62     0  04:41     0.00031       0.451       0.300
  YS02001754           JUNCTION      0.26   176.08     0  04:49     0.00733       0.822       1.302
  YS02001762           JUNCTION      0.00    44.00     0  03:09           0       0.476       2.914
  YS02001765           JUNCTION      0.00    66.34     0  04:29           0       0.466       3.149
  YS02001767           JUNCTION      0.54    58.44     0  04:45      0.0151        0.47       4.120
  YS02001770           JUNCTION     38.14    44.73     0  02:58        0.43       0.448       3.695
  YS02001774           JUNCTION      0.00    19.57     0  02:34           0      0.0771      22.971
  YS02001779           JUNCTION      0.01    11.99     0  04:30    0.000141      0.0456      12.177
  YS02001882           JUNCTION      0.00     1.78     0  02:22           0      0.0029      85.468
  YS02001884           JUNCTION      0.00     5.29     0  02:11           0      0.0119      53.066
  YS02001759           JUNCTION     37.43    86.13     0  04:29       0.405       0.853       1.847
  YS02001887           JUNCTION     49.89    49.89     0  02:55       0.502       0.507       1.270
  YS02001890           JUNCTION      0.00    49.68     0  02:57           0        0.49       1.452
  YS02001898           JUNCTION      0.00    49.50     0  03:01           0        0.48       0.351
  YS02001901           JUNCTION      0.00    49.58     0  03:01           0        0.48       0.996
  YS02001904           JUNCTION      0.00    49.43     0  03:02           0        0.48       0.931
  YS02001907           JUNCTION      0.00    89.99     0  03:03           0        1.03       2.071
  YS02001910           JUNCTION      0.00    40.81     0  03:01           0       0.556       1.680
  YS02001915           JUNCTION     26.27    40.65     0  03:01       0.309       0.559       0.653
  YS02001918           JUNCTION      0.00    14.54     0  03:04           0       0.251       0.290
  YS02001619           JUNCTION     25.45    25.45     0  03:01       0.303       0.303       0.162
  YS02001629           JUNCTION      0.00    29.30     0  02:53           0       0.289       1.890
  YS02001641           JUNCTION      0.00    58.52     0  03:05           0       0.605       2.073
  YS02001644           JUNCTION     27.50    82.97     0  03:04        0.34       0.926       1.640
  YS02001652           JUNCTION      0.00    54.09     0  04:36           0        0.41       2.201
  YS02001655           JUNCTION      0.15    35.23     0  02:58     0.00434       0.367       0.795
  YS02001920           JUNCTION      2.87    14.55     0  03:03      0.0809       0.253       0.628
  YS02001923           JUNCTION      0.04    11.68     0  03:02     0.00106       0.172       0.113
  YS02001926           JUNCTION      0.05    11.69     0  03:01     0.00147       0.173       0.823
  YS02001929           JUNCTION     11.65    11.65     0  03:01       0.171       0.171       0.105
  YS02001658           JUNCTION      0.00    35.07     0  02:58           0       0.358       0.053
  YS02001661           JUNCTION      0.00    35.07     0  02:58           0       0.359       0.193
  YS02001664           JUNCTION     35.07    35.07     0  02:58       0.359       0.359       0.037
  YS02001622           JUNCTION      0.00    26.40     0  02:53           0       0.302       0.763
  YS02001633           JUNCTION     27.99    61.53     0  02:54       0.352       0.628       2.909
  YS02001649           JUNCTION      0.00   125.04     0  03:14           0        1.28       1.815
  YS02001757           JUNCTION      0.00   309.23     0  04:28           0        2.68       2.569
  YS02001895           JUNCTION      0.00    49.53     0  03:00           0       0.483       0.598
  YS02001625           JUNCTION      0.00    29.63     0  02:53           0         0.3       4.906
  YS02163301           JUNCTION      0.00    31.14     0  02:54           0        0.29       4.237
  YS02163601           JUNCTION      0.11    58.30     0  02:54      0.0031       0.609       3.185
  YS02164001           JUNCTION      0.00    59.79     0  02:54           0         0.6       1.926
  YS02001647           JUNCTION      0.00    87.18     0  02:55           0       0.899       1.321
  YSB1154              JUNCTION      5.33     5.33     0  02:22      0.0238      0.0252       6.086
  YSB6556              JUNCTION      0.00     5.29     0  02:26           0      0.0262       4.978
  YSB1174              JUNCTION      5.33     5.33     0  02:16      0.0175      0.0185       7.464
  YSB1171              JUNCTION      0.00     9.80     0  02:25           0      0.0503      14.377
  YS02006553           JUNCTION      0.00    90.11     0  03:04           0        1.01       1.353
  YS02006561           JUNCTION      0.00   131.69     0  03:02           0        1.43       0.033
  YS02006556           JUNCTION      0.00    90.24     0  03:04           0        1.02       0.965
  YS02006558           JUNCTION     42.36   131.71     0  03:01       0.458        1.45       0.289
  YS02001783           JUNCTION      0.00   131.68     0  03:02           0        1.43       0.077
  YS02001784           JUNCTION      1.06   132.74     0  03:02      0.0299        1.45       0.129
  YS02001786           JUNCTION      0.06   132.78     0  03:03     0.00159        1.45       0.128
  YS02001788           JUNCTION      0.07   132.84     0  03:03       0.002        1.45       0.069
  YS02001790           JUNCTION      0.15   132.99     0  03:03     0.00437        1.46       0.091
  YS02001791           JUNCTION      0.00   132.98     0  03:04           0        1.46       0.044
  YS02001793           JUNCTION      0.00   132.98     0  03:04           0        1.46       0.020
  WS02004139           JUNCTION      0.32   284.51     0  00:20     0.00905        5.33       0.569
  WSC                  OUTFALL       0.00   582.44     0  03:18           0        10.2       0.000
  3                    OUTFALL       0.00   250.55     0  00:00           0       0.182       0.000
  4                    OUTFALL       0.00     0.00     0  00:00           0           0       0.000 ltr
  5                    OUTFALL       0.00     0.00     0  00:00           0           0       0.000 ltr
  JK-storage           STORAGE       0.00   132.98     0  03:04           0        1.61      -1.774
  CC-storage           STORAGE       0.00   210.80     0  03:07           0        2.24      -0.000
  XR-storage           STORAGE     247.75   247.75     0  03:01        6.23        6.83       0.000
  
  
  **********************
  Node Surcharge Summary
  **********************
  
  No nodes were surcharged.
  
  
  *********************
  Node Flooding Summary
  *********************
  
  Flooding refers to all water that overflows a node, whether it ponds or not.
  --------------------------------------------------------------------------
                                                             Total   Maximum
                                 Maximum   Time of Max       Flood    Ponded
                        Hours       Rate    Occurrence      Volume     Depth
  Node                 Flooded       LPS   days hr:min    10^6 ltr    Meters
  --------------------------------------------------------------------------
  XR-storage              4.56     52.76      0  03:16       0.571     0.000
  
  
  **********************
  Storage Volume Summary
  **********************
  
  --------------------------------------------------------------------------------------------------
                         Average     Avg  Evap Exfil       Maximum     Max    Time of Max    Maximum
                          Volume    Pcnt  Pcnt  Pcnt        Volume    Pcnt     Occurrence    Outflow
  Storage Unit           1000 m3    Full  Loss  Loss       1000 m3    Full    days hr:min        LPS
  --------------------------------------------------------------------------------------------------
  JK-storage               0.002       1     0     0         0.151      52       0  00:00     300.00
  CC-storage               0.001       0     0     0         0.009       0       0  03:24     200.00
  XR-storage               0.889      96     0     0         0.926     100       0  03:16     284.79
  
  
  ***********************
  Outfall Loading Summary
  ***********************
  
  -----------------------------------------------------------
                         Flow       Avg       Max       Total
                         Freq      Flow      Flow      Volume
  Outfall Node           Pcnt       LPS       LPS    10^6 ltr
  -----------------------------------------------------------
  WSC                   99.99    417.20    582.44      10.161
  3                     29.28     35.20    250.55       0.182
  4                      0.00      0.00      0.00       0.000
  5                      0.00      0.00      0.00       0.000
  -----------------------------------------------------------
  System                32.32    452.40    613.14      10.343
  
  
  ********************
  Link Flow Summary
  ********************
  
  -----------------------------------------------------------------------------
                                 Maximum  Time of Max   Maximum    Max/    Max/
                                  |Flow|   Occurrence   |Veloc|    Full    Full
  Link                 Type          LPS  days hr:min     m/sec    Flow   Depth
  -----------------------------------------------------------------------------
  WS02003066WSF200     CONDUIT    367.10     0  03:14      2.49    0.06    0.19
  WS02006287WS02006284 CONDUIT     90.42     0  02:28      1.21    0.04    0.15
  WS02006284WS02006280 CONDUIT     90.52     0  02:28      1.46    0.04    0.13
  WS02006280WS02006229 CONDUIT     90.52     0  02:28      2.35    0.02    0.10
  WS02006229WS02006228 CONDUIT    367.04     0  03:05      0.83    1.22    0.95
  WS02006256WS02006235 CONDUIT    166.25     0  00:01      2.58    1.76    1.00
  WS02006253WS02006251 CONDUIT     15.91     0  02:28      0.35    0.05    0.59
  WS02006252WS02006251 CONDUIT    200.15     0  02:59      2.01    0.73    0.76
  WS02006251WS02006249 CONDUIT    209.73     0  03:01      0.90    0.60    0.59
  WS02006249WS02006248 CONDUIT    209.37     0  03:02      0.97    1.15    0.55
  WS02006248WS02006247 CONDUIT    209.09     0  03:04      0.93    0.46    0.57
  WS02006247WS02006245 CONDUIT    208.82     0  03:04      0.88    1.66    0.60
  WS02006245WS02006243 CONDUIT    208.56     0  03:05      0.94    0.62    0.60
  WS02006243WS02006242 CONDUIT    208.33     0  03:08      0.74    0.45    0.69
  WS02006242WS02006240 CONDUIT    208.28     0  03:10      0.67    0.83    0.75
  WS02006240WS02006239 CONDUIT    208.31     0  03:11      0.69    0.66    0.74
  WS02006239WS02006238 CONDUIT    208.39     0  03:11      0.67    0.67    0.83
  WS02006238WS02006235 CONDUIT    208.44     0  03:12      1.25    0.47    0.86
  WS02006235WS02006234 CONDUIT    303.40     0  03:11      0.93    3.20    0.80
  WS02006234WS02006232 CONDUIT    303.50     0  03:12      1.13    0.61    0.86
  WS02006232WS02006231 CONDUIT    303.60     0  03:12      0.92    0.64    0.81
  WS02006231WS02006230 CONDUIT    303.80     0  03:13      1.27    4.61    0.63
  WS02006230WS02006229 CONDUIT    314.53     0  03:13      0.86    7.00    1.00
  WS02006228WS02006109 CONDUIT    367.03     0  03:06      0.75    1.60    0.98
  WS02006116WS02004401 CONDUIT    368.20     0  03:08      0.73    0.51    0.71
  WS02006115WS02006116 CONDUIT    368.52     0  03:07      0.79    0.47    0.62
  WS02006113WS02006111 CONDUIT    375.27     0  03:06      2.16    0.45    0.38
  WS02006112WS02006115 CONDUIT    369.01     0  03:07      0.59    0.22    0.75
  WS02006111WS02006112 CONDUIT    368.78     0  03:06      1.32    0.18    0.64
  WS02006110WS02006113 CONDUIT    368.27     0  03:06      0.95    0.34    0.72
  WS02006109WS02006110 CONDUIT    368.25     0  03:06      0.76    0.71    0.92
  WS02004411WS02004412 CONDUIT    367.23     0  03:13      0.77    0.52    0.58
  WS02004401WS02004402 CONDUIT    368.00     0  03:09      0.77    0.44    0.73
  WS02004413WS02003067 CONDUIT    367.10     0  03:14      0.91    0.16    0.51
  WS02004412WS02004413 CONDUIT    367.13     0  03:13      0.65    0.25    0.67
  WS02004410WS02004411 CONDUIT    367.39     0  03:12      0.80    0.50    0.57
  WS02004409WS02004410 CONDUIT    367.63     0  03:11      0.83    0.48    0.55
  WS02004407WS02004409 CONDUIT    367.94     0  03:11      1.29    0.13    0.39
  WS02004406WS02004407 CONDUIT    367.95     0  03:10      0.83    0.16    0.55
  WS02004405WS02004406 CONDUIT    367.96     0  03:10      0.66    0.73    0.85
  WS02004404WS02004405 CONDUIT    367.95     0  03:10      0.84    3.60    0.85
  WS02004403WS02004404 CONDUIT    367.82     0  03:10      0.74    0.27    0.81
  WS02004402WS02004403 CONDUIT    367.88     0  03:09      0.75    0.53    0.76
  WS02004139WS02001211 CONDUIT    272.16     0  00:20      0.53    0.34    0.49
  WS02004138WS02004139 CONDUIT    284.18     0  00:20      2.39    0.06    0.36
  WS02003067WS02003066 CONDUIT    367.10     0  03:14      0.97    0.12    0.37
  WS02001213WS02003059 CONDUIT    266.59     0  00:24      0.57    0.44    0.62
  WS02001212WS02001213 CONDUIT    270.44     0  00:22      1.16    0.42    0.34
  WS02001211WS02001212 CONDUIT    270.94     0  00:21      0.64    0.21    0.53
  WS02003072WS02003073 CONDUIT    580.64     0  03:18      1.46    1.25    0.38
  WS02003069WS02003072 CONDUIT    580.64     0  03:17      1.39    0.28    0.40
  WS02003060WS02003069 CONDUIT    580.33     0  03:16      1.66    0.23    0.35
  WS02003059WS02003060 CONDUIT    264.92     0  00:25      0.78    0.17    0.53
  HS02004901HS02004770 CONDUIT      4.17     0  02:23      0.03    0.02    0.24
  HS02004876HS02004881 CONDUIT     13.79     0  02:28      0.31    0.15    0.06
  HS02004870HS02004876 CONDUIT     10.90     0  02:27      0.22    0.01    0.07
  HS02004842HS02004848 CONDUIT      2.84     0  02:37      0.02    0.00    0.26
  HS02004837HS02004842 CONDUIT      4.47     0  00:03      0.41    0.00    0.27
  HS02004830HS02004837 CONDUIT     14.29     0  02:25      0.35    0.01    0.06
  HS02004824HS02004830 CONDUIT     14.44     0  02:26      0.40    0.02    0.05
  HS02004817HS02004824 CONDUIT     20.46     0  02:29      0.17    0.01    0.36
  HS02004770HS02004777 CONDUIT     21.41     0  02:23      0.12    0.04    0.25
  HS02004799HS02004480 CONDUIT     54.12     0  02:26      0.37    0.07    0.21
  HS02004792HS02004799 CONDUIT     49.54     0  02:25      0.44    0.03    0.16
  HS02004788HS02004792 CONDUIT     29.06     0  02:27      0.61    0.02    0.07
  HS02004785HS02004788 CONDUIT     21.13     0  02:27      0.34    0.16    0.09
  HS02004777HS02004785 CONDUIT     21.06     0  02:26      0.15    0.03    0.20
  HS02004480HS02004478 CONDUIT     63.77     0  02:27      0.66    0.27    0.14
  HS02004479HS02004480 CONDUIT      9.82     0  02:29      0.15    0.01    0.21
  HS02004862HS02004870 CONDUIT      7.79     0  02:28      0.32    0.01    0.03
  HS02004848HS02004852 CONDUIT      2.69     0  02:27      0.20    0.00    0.02
  HS02004856HS02004862 CONDUIT      4.98     0  02:28      0.23    0.00    0.03
  HS02004852HS02004856 CONDUIT      2.67     0  02:29      0.05    0.00    0.07
  HS02004802HS02004478 CONDUIT     26.91     0  02:31      0.20    0.02    0.19
  HS02004478WS02006287 CONDUIT     90.43     0  02:28      0.90    0.03    0.11
  HS02004817HS02004807 CONDUIT     21.20     0  02:33      0.07    0.01    0.44
  HS02004807HS02004802 CONDUIT     26.82     0  02:30      0.19    0.05    0.23
  YS02001759YS02001757 CONDUIT     84.95     0  02:59      0.12    0.06    0.82
  YS02001762YS02001759 CONDUIT     65.91     0  04:29      0.17    0.08    0.75
  YS02001765YS02001762 CONDUIT     44.00     0  03:09      0.22    0.04    0.71
  YS02001770YS02001767 CONDUIT     46.86     0  02:58      0.27    0.19    0.64
  YS02001774YS02001770 CONDUIT     19.57     0  02:34      0.11    0.01    0.66
  YS02001779YS02001774 CONDUIT     12.32     0  04:29      0.06    0.01    0.58
  YS02001649YS02001757 CONDUIT    123.41     0  03:03      0.18    0.07    0.81
  YS02001767YS02001765 CONDUIT     66.34     0  04:29      0.25    0.08    0.67
  YS02006561YS02001783 CONDUIT    131.68     0  03:02      1.42    0.07    0.24
  YS02001783YS02001784 CONDUIT    131.68     0  03:02      0.93    0.18    0.32
  YS02001784YS02001785 CONDUIT    132.72     0  03:03      0.95    0.31    0.32
  YS02001788YS02001790 CONDUIT    132.84     0  03:03      1.48    0.10    0.23
  YS02001790YS02001791 CONDUIT    132.98     0  03:04      1.69    0.14    0.21
  YS02001791YS02001793 CONDUIT    132.98     0  03:04      3.04    0.06    0.14
  YS02001910YS02001907 CONDUIT     40.74     0  03:04      0.49    0.02    0.59
  YS02001786YS02001788 CONDUIT    132.77     0  03:03      1.33    0.26    0.25
  YS02001915YS02001910 CONDUIT     40.81     0  03:01      0.44    0.02    0.38
  YS02001918YS02001915 CONDUIT     14.53     0  03:05      0.44    0.01    0.17
  YS02001923YS02001920 CONDUIT     11.68     0  03:03      0.28    0.01    0.10
  YS02001926YS02001923 CONDUIT     11.65     0  03:02      0.34    0.02    0.09
  YS02001929YS02001926 CONDUIT     11.64     0  03:01      0.35    0.01    0.09
  YS02001920YS02001918 CONDUIT     14.54     0  03:04      0.32    0.01    0.11
  YS02001629YS02163301 CONDUIT     31.14     0  02:54      0.08    0.04    0.60
  YS02001619YS02001622 CONDUIT     26.40     0  02:53      0.50    0.04    0.22
  YS02001622YS02001625 CONDUIT     29.63     0  02:53      0.15    0.02    0.38
  YS02001625YS02001629 CONDUIT     29.30     0  02:53      0.15    0.01    0.37
  YS02163301YS02001633 CONDUIT     34.06     0  02:54      0.07    0.03    0.65
  YS02163601YS02164001 CONDUIT     59.79     0  02:54      0.10    0.05    0.71
  YS02164001YS02001641 CONDUIT     58.52     0  03:05      0.10    0.08    0.69
  YS02001641YS02001644 CONDUIT     56.15     0  03:13      0.11    0.18    0.70
  YS02001647YS02001649 CONDUIT     85.74     0  02:55      0.17    0.05    0.63
  YS02006553YS02006556 CONDUIT     90.24     0  03:04      0.18    0.08    0.67
  YS02006556YS02006558 CONDUIT     90.28     0  03:04      0.15    0.07    0.70
  YSB6556YSB1171       CONDUIT      5.30     0  02:29      0.03    0.01    0.48
  YS02001907YS02006553 CONDUIT     90.11     0  03:04      0.13    0.11    0.77
  YS02006558YS02006561 CONDUIT    131.69     0  03:02      1.82    0.29    0.30
  YS02001633YS02163601 CONDUIT     58.19     0  02:54      0.11    0.06    0.70
  YS02001644YS02001647 CONDUIT     87.18     0  02:55      0.18    0.05    0.61
  YS02001745YS02001748 CONDUIT     28.98     0  03:01      1.10    0.01    0.07
  YS02001748YS02001751 CONDUIT     29.02     0  03:01      0.88    0.01    0.17
  YS02001751YS02001754 CONDUIT     72.71     0  04:33      0.80    0.04    0.37
  YS02001754YS02001757 CONDUIT    141.39     0  04:48      0.33    0.06    0.70
  YS02001882YS02001884 CONDUIT      1.78     0  02:22      0.05    0.00    0.31
  YS02001884YS02001887 CONDUIT      5.29     0  02:11      0.04    0.01    0.40
  YS02001890YS02001895 CONDUIT     49.53     0  03:00      0.18    0.02    0.38
  YS02001895YS02001898 CONDUIT     49.50     0  03:01      0.39    0.09    0.24
  YS02001898YS02001901 CONDUIT     49.58     0  03:01      0.23    0.03    0.32
  YS02001901YS02001904 CONDUIT     49.43     0  03:02      0.19    0.08    0.37
  YS02001904YS02001907 CONDUIT     49.60     0  03:03      0.12    0.02    0.53
  YS02001887YS02001890 CONDUIT     49.68     0  02:57      0.14    0.09    0.46
  YS02001652YS02001649 CONDUIT     52.10     0  04:30      0.23    0.03    0.64
  YS02001655YS02001652 CONDUIT     43.24     0  03:06      0.86    0.02    0.40
  YS02001658YS02001655 CONDUIT     35.07     0  02:58      1.00    0.01    0.19
  YS02001661YS02001658 CONDUIT     35.07     0  02:58      1.12    0.01    0.08
  YS02001664YS02001661 CONDUIT     35.07     0  02:58      0.72    0.01    0.11
  YSB1154YSB6556       CONDUIT      5.29     0  02:26      0.19    0.01    0.37
  YSB1174YSB1171       CONDUIT      4.97     0  02:20      0.03    0.01    0.48
  YSB1171HS02004479    CONDUIT      9.75     0  02:29      0.54    0.01    0.36
  HS02004881HS02006253 CONDUIT     15.48     0  02:28      1.16    0.00    0.07
  YS02001793JiankangQianchi CONDUIT    132.98     0  03:04     10.16    0.01    0.50
  YS02001757CaochengTiaoxuchi CONDUIT    210.80     0  03:07      0.64    0.09    0.44
  WSF200WS02003060     CONDUIT    367.09     0  03:14      1.51    0.08    0.27
  1                    CONDUIT    582.44     0  03:18      2.87    0.20    0.31
  2                    CONDUIT      0.00     0  00:00      0.00    0.00    0.00
  3                    CONDUIT    250.55     0  00:00      8.26    0.40    0.46
  4                    CONDUIT      0.00     0  00:00      0.00    0.00    0.00
  CC-Pump-1            PUMP       200.00     0  02:59              1.00
  CC-Pump-2            PUMP         0.00     0  00:00              0.00
  JK-Pump-1            PUMP       300.00     0  00:00              1.00
  JK-Pump-2            PUMP         1.36     0  00:16              0.00
  XR-Pump-1            PUMP        95.00     0  00:00              1.00
  XR-Pump-2            PUMP        95.00     0  01:40              1.00
  XR-Pump-3            PUMP        95.00     0  00:20              1.00
  XR-Pump-4            PUMP        95.00     0  01:40              1.00
  
  
  ***************************
  Flow Classification Summary
  ***************************
  
  -------------------------------------------------------------------------------------
                      Adjusted    ---------- Fraction of Time in Flow Class ---------- 
                       /Actual         Up    Down  Sub   Sup   Up    Down  Norm  Inlet 
  Conduit               Length    Dry  Dry   Dry   Crit  Crit  Crit  Crit  Ltd   Ctrl  
  -------------------------------------------------------------------------------------
  WS02003066WSF200        1.00   0.08  0.00  0.00  0.00  0.92  0.00  0.00  0.77  0.00
  WS02006287WS02006284    1.00   0.05  0.02  0.00  0.74  0.19  0.00  0.00  0.81  0.00
  WS02006284WS02006280    1.00   0.06  0.00  0.00  0.00  0.00  0.00  0.94  0.00  0.00
  WS02006280WS02006229    1.00   0.06  0.00  0.00  0.00  0.00  0.00  0.94  0.00  0.00
  WS02006229WS02006228    1.00   0.00  0.00  0.00  0.98  0.00  0.00  0.02  0.00  0.00
  WS02006256WS02006235    1.00   0.00  0.00  0.00  1.00  0.00  0.00  0.00  0.00  0.00
  WS02006253WS02006251    1.00   0.04  0.02  0.00  0.94  0.00  0.00  0.00  0.00  0.00
  WS02006252WS02006251    1.00   0.12  0.00  0.00  0.00  0.00  0.88  0.00  0.00  0.00
  WS02006251WS02006249    1.00   0.00  0.00  0.00  1.00  0.00  0.00  0.00  0.32  0.00
  WS02006249WS02006248    1.00   0.00  0.03  0.00  0.87  0.00  0.10  0.00  0.00  0.00
  WS02006248WS02006247    1.00   0.03  0.00  0.00  0.97  0.00  0.00  0.00  0.21  0.00
  WS02006247WS02006245    1.00   0.03  0.00  0.00  0.97  0.00  0.00  0.00  0.00  0.00
  WS02006245WS02006243    1.00   0.02  0.01  0.00  0.92  0.00  0.00  0.06  0.01  0.00
  WS02006243WS02006242    1.00   0.01  0.01  0.00  0.99  0.00  0.00  0.00  0.42  0.00
  WS02006242WS02006240    1.00   0.01  0.00  0.00  0.99  0.00  0.00  0.00  0.00  0.00
  WS02006240WS02006239    1.00   0.00  0.00  0.00  0.94  0.00  0.00  0.06  0.01  0.00
  WS02006239WS02006238    1.00   0.00  0.00  0.00  1.00  0.00  0.00  0.00  0.02  0.00
  WS02006238WS02006235    1.00   0.00  0.00  0.00  1.00  0.00  0.00  0.00  0.00  0.00
  WS02006235WS02006234    1.00   0.00  0.00  0.00  0.93  0.00  0.07  0.00  0.00  0.00
  WS02006234WS02006232    1.00   0.00  0.00  0.00  1.00  0.00  0.00  0.00  0.18  0.00
  WS02006232WS02006231    1.00   0.00  0.00  0.00  0.99  0.00  0.01  0.00  0.00  0.00
  WS02006231WS02006230    1.00   0.00  0.00  0.00  0.18  0.00  0.81  0.00  0.00  0.00
  WS02006230WS02006229    1.00   0.00  0.00  0.00  0.98  0.00  0.00  0.02  0.01  0.00
  WS02006228WS02006109    1.00   0.00  0.00  0.00  0.99  0.00  0.00  0.00  0.00  0.00
  WS02006116WS02004401    1.00   0.03  0.00  0.00  0.97  0.00  0.00  0.00  0.00  0.00
  WS02006115WS02006116    1.00   0.03  0.00  0.00  0.96  0.00  0.00  0.01  0.00  0.00
  WS02006113WS02006111    1.00   0.03  0.00  0.00  0.00  0.97  0.00  0.00  0.14  0.00
  WS02006112WS02006115    1.00   0.03  0.00  0.00  0.96  0.00  0.00  0.00  0.00  0.00
  WS02006111WS02006112    1.00   0.03  0.00  0.00  0.97  0.00  0.00  0.00  0.98  0.00
  WS02006110WS02006113    1.00   0.02  0.01  0.00  0.97  0.00  0.00  0.00  0.00  0.00
  WS02006109WS02006110    1.00   0.00  0.01  0.00  0.98  0.00  0.01  0.00  0.00  0.00
  WS02004411WS02004412    1.00   0.05  0.00  0.00  0.95  0.00  0.00  0.00  0.00  0.00
  WS02004401WS02004402    1.00   0.03  0.00  0.00  0.97  0.00  0.00  0.00  0.00  0.00
  WS02004413WS02003067    1.00   0.05  0.02  0.00  0.00  0.00  0.93  0.00  0.00  0.00
  WS02004412WS02004413    1.00   0.05  0.00  0.00  0.95  0.00  0.00  0.00  0.03  0.00
  WS02004410WS02004411    1.00   0.05  0.00  0.00  0.95  0.00  0.00  0.00  0.04  0.00
  WS02004409WS02004410    1.00   0.05  0.00  0.00  0.95  0.00  0.00  0.00  0.04  0.00
  WS02004407WS02004409    1.00   0.05  0.00  0.00  0.95  0.00  0.00  0.00  0.89  0.00
  WS02004406WS02004407    1.00   0.00  0.05  0.00  0.95  0.00  0.00  0.00  0.00  0.00
  WS02004405WS02004406    1.00   0.00  0.00  0.00  1.00  0.00  0.00  0.00  0.00  0.00
  WS02004404WS02004405    1.00   0.00  0.00  0.00  1.00  0.00  0.00  0.00  0.00  0.00
  WS02004403WS02004404    1.00   0.00  0.04  0.00  0.96  0.00  0.00  0.00  0.01  0.00
  WS02004402WS02004403    1.00   0.03  0.00  0.00  0.97  0.00  0.00  0.00  0.00  0.00
  WS02004139WS02001211    1.00   0.00  0.00  0.00  0.99  0.00  0.01  0.00  0.00  0.00
  WS02004138WS02004139    1.00   0.00  0.00  0.00  0.98  0.01  0.00  0.00  1.00  0.00
  WS02003067WS02003066    1.00   0.07  0.01  0.00  0.92  0.00  0.00  0.00  0.00  0.00
  WS02001213WS02003059    1.00   0.00  0.01  0.00  0.99  0.00  0.00  0.00  0.00  0.00
  WS02001212WS02001213    1.00   0.01  0.00  0.00  0.38  0.00  0.61  0.00  0.00  0.00
  WS02001211WS02001212    1.00   0.00  0.01  0.00  0.99  0.00  0.00  0.00  0.00  0.00
  WS02003072WS02003073    1.00   0.00  0.00  0.00  0.00  0.00  0.00  1.00  0.00  0.00
  WS02003069WS02003072    1.00   0.00  0.00  0.00  0.99  0.01  0.00  0.00  0.53  0.00
  WS02003060WS02003069    1.00   0.00  0.00  0.00  0.98  0.02  0.00  0.00  0.24  0.00
  WS02003059WS02003060    1.00   0.00  0.00  0.00  0.99  0.01  0.00  0.00  0.02  0.00
  HS02004901HS02004770    1.00   0.06  0.00  0.00  0.94  0.00  0.00  0.00  0.03  0.00
  HS02004876HS02004881    1.00   0.03  0.00  0.00  0.97  0.00  0.00  0.00  0.00  0.00
  HS02004870HS02004876    1.00   0.01  0.00  0.00  0.99  0.00  0.00  0.00  0.95  0.00
  HS02004842HS02004848    1.00   0.00  0.06  0.00  0.94  0.00  0.00  0.00  0.72  0.00
  HS02004837HS02004842    1.00   0.00  0.00  0.00  0.99  0.01  0.00  0.00  0.11  0.00
  HS02004830HS02004837    1.00   0.00  0.00  0.00  1.00  0.00  0.00  0.00  0.99  0.00
  HS02004824HS02004830    1.00   0.00  0.00  0.00  1.00  0.00  0.00  0.00  0.00  0.00
  HS02004817HS02004824    1.00   0.00  0.00  0.00  1.00  0.00  0.00  0.00  1.00  0.00
  HS02004770HS02004777    1.00   0.00  0.06  0.00  0.94  0.00  0.00  0.00  0.08  0.00
  HS02004799HS02004480    1.00   0.00  0.03  0.00  0.92  0.00  0.04  0.00  0.00  0.00
  HS02004792HS02004799    1.00   0.00  0.00  0.00  0.98  0.02  0.00  0.00  0.98  0.00
  HS02004788HS02004792    1.00   0.00  0.00  0.00  0.98  0.02  0.00  0.00  0.98  0.00
  HS02004785HS02004788    1.00   0.00  0.00  0.00  1.00  0.00  0.00  0.00  0.00  0.00
  HS02004777HS02004785    1.00   0.00  0.00  0.00  1.00  0.00  0.00  0.00  0.22  0.00
  HS02004480HS02004478    1.00   0.06  0.00  0.00  0.75  0.00  0.00  0.18  0.00  0.00
  HS02004479HS02004480    1.00   0.04  0.00  0.00  0.96  0.00  0.00  0.00  0.16  0.00
  HS02004862HS02004870    1.00   0.00  0.00  0.00  1.00  0.00  0.00  0.00  0.06  0.00
  HS02004848HS02004852    1.00   0.06  0.00  0.00  0.94  0.00  0.00  0.00  0.69  0.00
  HS02004856HS02004862    1.00   0.00  0.09  0.00  0.91  0.00  0.00  0.00  0.73  0.00
  HS02004852HS02004856    1.00   0.06  0.01  0.00  0.93  0.00  0.00  0.00  0.82  0.00
  HS02004802HS02004478    1.00   0.06  0.01  0.00  0.93  0.00  0.00  0.00  0.00  0.00
  HS02004478WS02006287    1.00   0.07  0.00  0.00  0.93  0.00  0.00  0.00  0.81  0.00
  HS02004817HS02004807    1.00   0.00  0.06  0.00  0.94  0.00  0.00  0.00  0.00  0.00
  HS02004807HS02004802    1.00   0.06  0.00  0.00  0.94  0.00  0.00  0.00  0.01  0.00
  YS02001759YS02001757    1.00   0.00  0.00  0.00  1.00  0.00  0.00  0.00  0.17  0.00
  YS02001762YS02001759    1.00   0.00  0.00  0.00  1.00  0.00  0.00  0.00  0.05  0.00
  YS02001765YS02001762    1.00   0.00  0.00  0.00  1.00  0.00  0.00  0.00  0.23  0.00
  YS02001770YS02001767    1.00   0.00  0.00  0.00  1.00  0.00  0.00  0.00  0.00  0.00
  YS02001774YS02001770    1.00   0.00  0.07  0.00  0.93  0.00  0.00  0.00  0.07  0.00
  YS02001779YS02001774    1.00   0.00  0.00  0.00  1.00  0.00  0.00  0.00  0.28  0.00
  YS02001649YS02001757    1.00   0.00  0.00  0.00  1.00  0.00  0.00  0.00  0.19  0.00
  YS02001767YS02001765    1.00   0.00  0.00  0.00  1.00  0.00  0.00  0.00  0.01  0.00
  YS02006561YS02001783    1.00   0.09  0.00  0.00  0.00  0.91  0.00  0.00  0.72  0.00
  YS02001783YS02001784    1.00   0.00  0.09  0.00  0.91  0.00  0.00  0.00  0.20  0.00
  YS02001784YS02001785    1.00   0.00  0.00  0.00  1.00  0.00  0.00  0.00  0.27  0.00
  YS02001788YS02001790    1.00   0.00  0.00  0.00  0.10  0.90  0.00  0.00  0.99  0.00
  YS02001790YS02001791    1.00   0.00  0.00  0.00  0.02  0.98  0.00  0.00  0.27  0.00
  YS02001791YS02001793    1.00   0.00  0.00  0.00  0.00  1.00  0.00  0.00  0.00  0.00
  YS02001910YS02001907    1.00   0.00  0.00  0.00  0.97  0.00  0.00  0.03  0.13  0.00
  YS02001786YS02001788    1.00   0.00  0.00  0.00  0.21  0.79  0.00  0.00  0.00  0.00
  YS02001915YS02001910    1.00   0.00  0.00  0.00  0.99  0.01  0.00  0.00  0.25  0.00
  YS02001918YS02001915    1.00   0.00  0.01  0.00  0.97  0.02  0.00  0.00  0.80  0.00
  YS02001923YS02001920    1.00   0.00  0.00  0.00  1.00  0.00  0.00  0.00  1.00  0.00
  YS02001926YS02001923    1.00   0.00  0.05  0.00  0.00  0.00  0.95  0.00  0.00  0.00
  YS02001929YS02001926    1.00   0.00  0.06  0.00  0.94  0.00  0.00  0.00  0.86  0.00
  YS02001920YS02001918    1.00   0.00  0.01  0.00  0.99  0.00  0.00  0.00  0.00  0.00
  YS02001629YS02163301    1.00   0.08  0.01  0.00  0.91  0.00  0.00  0.00  0.00  0.00
  YS02001619YS02001622    1.00   0.06  0.00  0.00  0.94  0.00  0.00  0.00  0.00  0.00
  YS02001622YS02001625    1.00   0.06  0.00  0.00  0.94  0.00  0.00  0.00  0.15  0.00
  YS02001625YS02001629    1.00   0.06  0.04  0.00  0.88  0.00  0.02  0.00  0.00  0.00
  YS02163301YS02001633    1.00   0.00  0.08  0.00  0.92  0.00  0.00  0.00  0.00  0.00
  YS02163601YS02164001    1.00   0.00  0.05  0.00  0.95  0.00  0.00  0.00  0.00  0.00
  YS02164001YS02001641    1.00   0.01  0.04  0.00  0.95  0.00  0.00  0.00  0.07  0.00
  YS02001641YS02001644    1.00   0.00  0.01  0.00  0.99  0.00  0.00  0.00  0.00  0.00
  YS02001647YS02001649    1.00   0.00  0.09  0.00  0.91  0.00  0.00  0.00  0.01  0.00
  YS02006553YS02006556    1.00   0.02  0.00  0.00  0.98  0.00  0.00  0.00  0.03  0.00
  YS02006556YS02006558    1.00   0.00  0.00  0.00  1.00  0.00  0.00  0.00  0.00  0.00
  YSB6556YSB1171          1.00   0.04  0.02  0.00  0.94  0.00  0.00  0.00  0.00  0.00
  YS02001907YS02006553    1.00   0.00  0.03  0.00  0.97  0.00  0.00  0.00  0.00  0.00
  YS02006558YS02006561    1.00   0.09  0.00  0.00  0.00  0.91  0.00  0.00  0.71  0.00
  YS02001633YS02163601    1.00   0.00  0.01  0.00  0.99  0.00  0.00  0.00  0.20  0.00
  YS02001644YS02001647    1.00   0.00  0.09  0.00  0.91  0.00  0.00  0.00  0.00  0.00
  YS02001745YS02001748    1.00   0.00  0.00  0.00  0.00  0.00  0.00  1.00  0.00  0.00
  YS02001748YS02001751    1.00   0.00  0.00  0.00  0.97  0.03  0.00  0.00  0.91  0.00
  YS02001751YS02001754    1.00   0.00  0.00  0.00  0.90  0.00  0.00  0.10  0.03  0.00
  YS02001754YS02001757    1.00   0.00  0.00  0.00  0.99  0.01  0.00  0.00  0.28  0.00
  YS02001882YS02001884    1.00   0.08  0.01  0.00  0.92  0.00  0.00  0.00  0.00  0.00
  YS02001884YS02001887    1.00   0.04  0.01  0.00  0.95  0.00  0.00  0.00  0.00  0.00
  YS02001890YS02001895    1.00   0.00  0.08  0.00  0.91  0.00  0.00  0.00  0.00  0.00
  YS02001895YS02001898    1.00   0.09  0.00  0.00  0.90  0.00  0.01  0.00  0.00  0.00
  YS02001898YS02001901    1.00   0.08  0.01  0.00  0.91  0.00  0.00  0.00  0.02  0.00
  YS02001901YS02001904    1.00   0.08  0.00  0.00  0.92  0.00  0.00  0.00  0.00  0.00
  YS02001904YS02001907    1.00   0.00  0.08  0.00  0.92  0.00  0.00  0.00  0.00  0.00
  YS02001887YS02001890    1.00   0.00  0.00  0.00  0.96  0.00  0.03  0.00  0.00  0.00
  YS02001652YS02001649    1.00   0.00  0.00  0.00  1.00  0.00  0.00  0.00  0.27  0.00
  YS02001655YS02001652    1.00   0.00  0.00  0.00  0.90  0.00  0.00  0.10  0.03  0.00
  YS02001658YS02001655    1.00   0.00  0.07  0.00  0.89  0.04  0.00  0.00  0.80  0.00
  YS02001661YS02001658    1.00   0.07  0.00  0.00  0.00  0.93  0.00  0.00  0.73  0.00
  YS02001664YS02001661    1.00   0.06  0.00  0.00  0.94  0.00  0.00  0.00  0.86  0.00
  YSB1154YSB6556          1.00   0.06  0.00  0.00  0.94  0.00  0.00  0.00  0.02  0.00
  YSB1174YSB1171          1.00   0.04  0.01  0.00  0.95  0.00  0.00  0.00  0.00  0.00
  YSB1171HS02004479       1.00   0.04  0.00  0.00  0.96  0.00  0.00  0.00  0.13  0.00
  HS02004881HS02006253    1.00   0.04  0.00  0.00  0.33  0.03  0.00  0.59  0.23  0.00
  YS02001793JiankangQianchi    1.00   0.00  0.00  0.00  0.03  0.97  0.00  0.00  0.02  0.00
  YS02001757CaochengTiaoxuchi    1.00   0.00  0.12  0.00  0.88  0.00  0.00  0.00  0.00  0.00
  WSF200WS02003060        1.00   0.00  0.08  0.00  0.85  0.07  0.00  0.00  0.53  0.00
  1                       1.00   0.00  0.00  0.00  0.00  1.00  0.00  0.00  0.34  0.00
  2                       1.00   1.00  0.00  0.00  0.00  0.00  0.00  0.00  0.00  0.00
  3                       1.00   0.71  0.00  0.00  0.00  0.29  0.00  0.00  0.33  0.00
  4                       1.00   1.00  0.00  0.00  0.00  0.00  0.00  0.00  0.00  0.00
  
  
  *************************
  Conduit Surcharge Summary
  *************************
  
  ----------------------------------------------------------------------------
                                                           Hours        Hours 
                         --------- Hours Full --------   Above Full   Capacity
  Conduit                Both Ends  Upstream  Dnstream   Normal Flow   Limited
  ----------------------------------------------------------------------------
  WS02006229WS02006228        0.01      0.01      0.01      1.18         0.01
  WS02006256WS02006235        5.43      5.43      6.25      1.34         0.01
  WS02006249WS02006248        0.01      0.01      0.01      0.95         0.01
  WS02006247WS02006245        0.01      0.01      0.01      2.14         0.01
  WS02006235WS02006234        0.01      0.01      0.01      5.40         0.01
  WS02006231WS02006230        0.01      0.01      0.01      5.49         0.01
  WS02006230WS02006229        0.33      0.97      0.33      5.62         0.33
  WS02006228WS02006109        0.01      0.01      0.01      2.09         0.01
  WS02006111WS02006112        0.01      0.01      1.34      0.01         0.01
  WS02004404WS02004405        0.01      0.01      0.01      5.35         0.01
  WS02003072WS02003073        0.01      0.01      0.01      1.86         0.01
  YS02001793JiankangQianchi        0.01      0.01      0.09      0.01         0.01
  
  
  ***************
  Pumping Summary
  ***************
  
  ---------------------------------------------------------------------------------------------------------
                                                  Min       Avg       Max     Total     Power    % Time Off
                        Percent   Number of      Flow      Flow      Flow    Volume     Usage    Pump Curve
  Pump                 Utilized   Start-Ups       LPS       LPS       LPS  10^6 ltr     Kw-hr    Low   High
  ---------------------------------------------------------------------------------------------------------
  CC-Pump-1               66.71           1      0.00    127.27    200.00     2.243      9.35    0.0  100.0
  CC-Pump-2                0.00           0      0.00      0.00      0.00     0.000      0.00    0.0    0.0
  JK-Pump-1              100.00           1      0.00     78.97    300.00     1.633     30.49    0.0    0.0
  JK-Pump-2                4.25           1      0.00      1.30      1.36     0.002      0.03    0.0    0.0
  XR-Pump-1               21.28           1      0.00     92.01     95.00     0.542      5.70    0.0    0.0
  XR-Pump-2               80.85           1      0.00     94.75     95.00     2.137     11.65    0.0    0.0
  XR-Pump-3               19.15           1      0.00     83.19     95.00     0.456      4.77    0.0    0.0
  XR-Pump-4               85.10           2      0.00     94.19     95.00     2.194     12.24    0.0    0.0
  

  Analysis begun on:  Thu Jan  6 01:38:20 2022
  Analysis ended on:  Thu Jan  6 01:38:23 2022
  Total elapsed time: 00:00:03