
  EPA STORM WATER MANAGEMENT MODEL - VERSION 5.1 (Build 5.3.0.dev0)
  --------------------------------------------------------------

  WARNING 04: minimum elevation drop used for Conduit WS02004404WS02004405
  WARNING 03: negative offset ignored for Link YS02001904YS02001907
  
  *********************************************************
  NOTE: The summary statistics displayed in this report are
  based on results found at every computational time step,  
  not just on results from each reporting time step.
  *********************************************************
  
  ****************
  Analysis Options
  ****************
  Flow Units ............... LPS
  Process Models:
    Rainfall/Runoff ........ YES
    RDII ................... NO
    Snowmelt ............... NO
    Groundwater ............ NO
    Flow Routing ........... YES
    Ponding Allowed ........ NO
    Water Quality .......... NO
  Infiltration Method ...... HORTON
  Flow Routing Method ...... DYNWAVE
  Surcharge Method ......... EXTRAN
  Starting Date ............ 08/28/2015 08:00:00
  Ending Date .............. 08/28/2015 15:50:00
  Antecedent Dry Days ...... 8.0
  Report Time Step ......... 00:01:00
  Wet Time Step ............ 00:01:00
  Dry Time Step ............ 00:01:00
  Routing Time Step ........ 5.00 sec
  Variable Time Step ....... YES
  Maximum Trials ........... 8
  Number of Threads ........ 4
  Head Tolerance ........... 0.001500 m
  
  
  **************************        Volume         Depth
  Runoff Quantity Continuity     hectare-m            mm
  **************************     ---------       -------
  Total Precipitation ......         2.605         5.704
  Evaporation Loss .........         0.000         0.000
  Infiltration Loss ........         0.653         1.430
  Surface Runoff ...........         1.076         2.356
  Final Storage ............         0.876         1.919
  Continuity Error (%) .....        -0.018
  
  
  **************************        Volume        Volume
  Flow Routing Continuity        hectare-m      10^6 ltr
  **************************     ---------     ---------
  Dry Weather Inflow .......         0.616         6.165
  Wet Weather Inflow .......         1.075        10.754
  Groundwater Inflow .......         0.000         0.000
  RDII Inflow ..............         0.000         0.000
  External Inflow ..........         0.102         1.024
  External Outflow .........         1.368        13.677
  Flooding Loss ............         0.131         1.314
  Evaporation Loss .........         0.000         0.000
  Exfiltration Loss ........         0.000         0.000
  Initial Stored Volume ....         0.076         0.761
  Final Stored Volume ......         0.376         3.762
  Continuity Error (%) .....        -0.269
  
  
  *************************
  Highest Continuity Errors
  *************************
  Node HS02004842 (29.22%)
  Node YS02001884 (23.53%)
  Node YS02001774 (13.21%)
  Node YSB1171 (7.25%)
  Node HS02004901 (5.76%)
  
  
  ***************************
  Time-Step Critical Elements
  ***************************
  Link WS02006252WS02006251 (86.39%)
  Link 3 (7.67%)
  Link WS02006280WS02006229 (2.17%)
  
  
  ********************************
  Highest Flow Instability Indexes
  ********************************
  Link WS02006113WS02006111 (43)
  Link WS02006111WS02006112 (32)
  Link YS02001765YS02001762 (3)
  Link YS02163601YS02164001 (3)
  Link YS02001641YS02001644 (3)
  
  
  *************************
  Routing Time Step Summary
  *************************
  Minimum Time Step           :     0.50 sec
  Average Time Step           :     0.89 sec
  Maximum Time Step           :     5.00 sec
  Percent in Steady State     :    -0.00
  Average Iterations per Step :     2.26
  Percent Not Converging      :     3.15
  
  
  ***************************
  Subcatchment Runoff Summary
  ***************************
  
  ------------------------------------------------------------------------------------------------------------------------------
                            Total      Total      Total      Total     Imperv       Perv      Total       Total     Peak  Runoff
                           Precip      Runon       Evap      Infil     Runoff     Runoff     Runoff      Runoff   Runoff   Coeff
  Subcatchment                 mm         mm         mm         mm         mm         mm         mm    10^6 ltr      LPS
  ------------------------------------------------------------------------------------------------------------------------------
  sub0                       5.70       0.00       0.00       0.40       4.04       0.00       4.04        0.00     1.40   0.708
  sub1                       5.70       0.00       0.00       0.63       3.82       0.00       3.82        0.03     7.17   0.670
  sub2                       5.70       0.00       0.00       2.11       2.69       0.00       2.69        0.03     6.32   0.471
  sub3                       5.70       0.00       0.00       2.11       2.65       0.00       2.65        0.06    12.95   0.465
  sub4                       5.70       0.00       0.00       0.63       3.68       0.00       3.68        0.08    14.48   0.646
  sub5                       5.70       0.00       0.00       0.40       3.99       0.00       3.99        0.05    12.76   0.700
  sub7                       5.70       0.00       0.00       0.51       3.94       0.00       3.94        0.01     4.53   0.690
  sub8                       5.70       0.00       0.00       0.51       3.93       0.00       3.93        0.03     7.98   0.688
  sub9                       5.70       0.00       0.00       0.51       3.93       0.00       3.93        0.02     5.91   0.688
  sub10                      5.70       0.00       0.00       0.46       3.96       0.00       3.96        0.04    12.75   0.694
  sub11                      5.70       0.00       0.00       0.46       3.97       0.00       3.97        0.05    15.02   0.697
  sub12                      5.70       0.00       0.00       0.74       3.77       0.00       3.77        0.03    12.81   0.662
  sub14                      5.70       0.00       0.00       0.51       3.92       0.00       3.92        0.04    11.54   0.688
  sub15                      5.70       0.00       0.00       1.71       3.01       0.00       3.01        0.05    15.64   0.529
  sub16                      5.70       0.00       0.00       1.88       2.90       0.00       2.90        0.03    11.24   0.509
  sub17                      5.70       0.00       0.00       1.83       2.94       0.00       2.94        0.03     9.07   0.516
  sub22                      5.70       0.00       0.00       2.45       2.46       0.00       2.46        0.16    51.43   0.432
  sub23                      5.70       0.00       0.00       2.11       2.72       0.00       2.72        0.13    43.83   0.478
  sub60                      5.70       0.00       0.00       0.68       2.62       0.00       2.62        0.79    72.79   0.459
  sub61                      5.70       0.00       0.00       0.97       2.81       0.00       2.81        0.87    91.48   0.492
  sub62                      5.70       0.00       0.00       0.46       3.01       0.00       3.01        0.92    93.44   0.528
  sub63                      5.70       0.00       0.00       1.65       2.51       0.00       2.51        0.76    85.46   0.439
  sub64                      5.70       0.00       0.00       0.86       2.50       0.00       2.50        0.76    69.11   0.438
  sub65                      5.70       0.00       0.00       0.74       2.53       0.00       2.53        0.78    70.10   0.444
  sub66                      5.70       0.00       0.00       1.65       2.18       0.00       2.18        0.67    63.40   0.383
  sub67                      5.70       0.00       0.00       0.46       3.32       0.00       3.32        1.02   120.20   0.582
  sub68                      5.70       0.00       0.00       0.80       2.99       0.00       2.99        0.92   101.20   0.524
  sub69                      5.70       0.00       0.00       0.86       3.24       0.00       3.24        0.76   100.83   0.568
  sub70                      5.70       3.31       0.00       3.06       3.95       0.00       3.95        0.90    80.33   0.438
  sub71                      5.70       0.00       0.00       0.46       2.87       0.00       2.87        0.68    65.18   0.504
  sub72                      5.70       0.00       0.00       0.40       2.01       0.00       2.01        0.41    30.52   0.353
  sub73                      5.70       3.84       0.00       3.25       4.00       0.00       4.00        0.94    68.82   0.419
  sub74                      5.70       0.00       0.00       4.28       0.98       0.00       0.98        0.39    56.34   0.171
  
  
  ******************
  Node Depth Summary
  ******************
  
  ---------------------------------------------------------------------------------
                                 Average  Maximum  Maximum  Time of Max    Reported
                                   Depth    Depth      HGL   Occurrence   Max Depth
  Node                 Type       Meters   Meters   Meters  days hr:min      Meters
  ---------------------------------------------------------------------------------
  WS02001211           JUNCTION     0.61     0.67     5.51     0  00:22        0.67
  WS02001212           JUNCTION     0.34     0.39     5.45     0  00:22        0.39
  WS02001213           JUNCTION     0.57     0.62     5.38     0  03:02        0.62
  WS02003069           JUNCTION     0.40     0.47     5.06     0  03:01        0.47
  WS02003072           JUNCTION     0.47     0.54     4.91     0  03:02        0.54
  WS02003073           JUNCTION     0.28     0.32     4.39     0  03:03        0.32
  WS02003060           JUNCTION     0.36     0.42     5.35     0  03:01        0.42
  WS02003066           JUNCTION     0.23     0.27     5.83     0  02:59        0.27
  WS02003059           JUNCTION     0.63     0.69     5.37     0  03:02        0.69
  WS02003067           JUNCTION     0.56     0.66     5.98     0  02:58        0.66
  WS02004401           JUNCTION     0.65     0.77     6.77     0  02:54        0.77
  WS02004402           JUNCTION     0.68     0.80     6.76     0  02:54        0.80
  WS02004403           JUNCTION     0.71     0.82     6.75     0  02:55        0.82
  WS02004404           JUNCTION     0.78     0.90     6.75     0  02:55        0.90
  WS02004406           JUNCTION     0.79     0.90     6.73     0  02:55        0.90
  WS02004409           JUNCTION     0.47     0.60     6.37     0  02:57        0.60
  WS02004410           JUNCTION     0.49     0.61     6.33     0  02:58        0.61
  WS02004411           JUNCTION     0.51     0.63     6.31     0  02:58        0.63
  WS02004412           JUNCTION     0.53     0.64     6.28     0  02:58        0.64
  WS02004413           JUNCTION     0.68     0.80     6.27     0  02:58        0.80
  WS02004405           JUNCTION     0.78     0.89     6.74     0  02:55        0.89
  WS02006109           JUNCTION     0.72     0.86     7.48     0  02:50        0.86
  WS02006110           JUNCTION     0.72     0.84     7.43     0  02:50        0.84
  WS02006111           JUNCTION     0.21     0.26     6.97     0  02:51        0.26
  WS02006112           JUNCTION     0.82     0.96     6.84     0  02:54        0.96
  WS02006113           JUNCTION     0.32     0.41     7.30     0  02:51        0.41
  WS02006115           JUNCTION     0.54     0.67     6.81     0  02:54        0.67
  WS02006116           JUNCTION     0.62     0.75     6.79     0  02:54        0.75
  WS02006230           JUNCTION     0.68     0.86     7.61     0  02:51        0.86
  WS02006231           JUNCTION     0.45     0.56     7.68     0  02:53        0.56
  WS02006232           JUNCTION     0.59     0.69     7.73     0  02:54        0.69
  WS02006234           JUNCTION     0.50     0.61     7.77     0  02:54        0.61
  WS02006235           JUNCTION     0.53     0.64     7.80     0  02:54        0.64
  WS02006238           JUNCTION     0.55     0.66     7.81     0  02:55        0.66
  WS02006240           JUNCTION     0.44     0.55     7.85     0  02:55        0.55
  WS02006242           JUNCTION     0.50     0.61     7.88     0  02:55        0.61
  WS02006243           JUNCTION     0.38     0.48     7.90     0  02:55        0.48
  WS02006245           JUNCTION     0.36     0.45     7.93     0  02:55        0.45
  WS02006247           JUNCTION     0.38     0.47     7.97     0  02:55        0.47
  WS02006248           JUNCTION     0.33     0.40     7.99     0  02:55        0.40
  WS02006249           JUNCTION     0.37     0.44     8.04     0  02:54        0.44
  WS02006239           JUNCTION     0.51     0.62     7.83     0  02:55        0.62
  WS02006251           JUNCTION     0.36     0.42     8.09     0  02:52        0.42
  WS02006252           JUNCTION     0.31     0.35     8.59     0  02:40        0.35
  WS02006253           JUNCTION     0.38     0.45     8.09     0  02:53        0.45
  WS02006256           JUNCTION     0.98     1.15     8.09     0  00:00        1.12
  WS02004138           JUNCTION     0.14     0.17     7.42     0  00:20        0.17
  WS02004407           JUNCTION     0.21     0.27     6.58     0  02:55        0.27
  WS02006228           JUNCTION     0.72     0.88     7.53     0  02:50        0.88
  WS02006229           JUNCTION     0.69     0.86     7.55     0  02:50        0.86
  WS02006280           JUNCTION     0.05     0.14     8.41     0  02:19        0.14
  WS02006284           JUNCTION     0.34     0.48     8.88     0  02:18        0.48
  WS02006287           JUNCTION     0.07     0.21     9.16     0  02:18        0.21
  WSF200               JUNCTION     0.21     0.27     5.51     0  02:59        0.27
  HS02004901           JUNCTION     0.11     0.23    10.05     0  02:16        0.23
  HS02004881           JUNCTION     0.01     0.02     9.05     0  02:18        0.02
  HS02004876           JUNCTION     0.03     0.10     9.13     0  02:17        0.10
  HS02004870           JUNCTION     0.01     0.04     9.33     0  02:18        0.04
  HS02004862           JUNCTION     0.01     0.05     9.43     0  02:19        0.05
  HS02004856           JUNCTION     0.07     0.10     9.53     0  02:19        0.10
  HS02004852           JUNCTION     0.01     0.03     9.54     0  02:20        0.03
  HS02004848           JUNCTION     0.01     0.03     9.63     0  02:18        0.03
  HS02004842           JUNCTION     0.33     0.36     9.63     0  02:18        0.36
  HS02004837           JUNCTION     0.03     0.05     9.63     0  02:18        0.05
  HS02004830           JUNCTION     0.04     0.06     9.53     0  02:18        0.06
  HS02004824           JUNCTION     0.02     0.04     9.44     0  02:21        0.04
  HS02004817           JUNCTION     0.42     0.52     9.37     0  02:19        0.52
  HS02004807           JUNCTION     0.11     0.20     9.37     0  02:19        0.20
  HS02004802           JUNCTION     0.15     0.23     9.36     0  02:19        0.23
  HS02004799           JUNCTION     0.09     0.25     9.46     0  02:17        0.25
  HS02004792           JUNCTION     0.02     0.10     9.62     0  02:16        0.10
  HS02004788           JUNCTION     0.02     0.07     9.97     0  02:17        0.07
  HS02004785           JUNCTION     0.03     0.13    10.03     0  02:17        0.13
  HS02004777           JUNCTION     0.13     0.25    10.05     0  02:16        0.25
  HS02004770           JUNCTION     0.10     0.22    10.05     0  02:16        0.22
  HS02004480           JUNCTION     0.06     0.19     9.44     0  02:17        0.19
  HS02004479           JUNCTION     0.09     0.23     9.44     0  02:17        0.23
  HS02004478           JUNCTION     0.05     0.12     9.35     0  02:18        0.12
  YS02001745           JUNCTION     0.08     0.12     7.64     0  05:05        0.12
  YS02001748           JUNCTION     0.41     0.55     7.62     0  05:04        0.55
  YS02001751           JUNCTION     0.59     0.75     7.63     0  04:36        0.74
  YS02001754           JUNCTION     0.84     1.03     7.64     0  04:35        1.02
  YS02001762           JUNCTION     1.03     1.25     7.65     0  04:21        1.22
  YS02001765           JUNCTION     0.98     1.21     7.66     0  04:21        1.17
  YS02001767           JUNCTION     0.95     1.18     7.67     0  04:36        1.14
  YS02001770           JUNCTION     0.94     1.17     7.66     0  04:36        1.14
  YS02001774           JUNCTION     1.01     1.22     7.65     0  04:36        1.21
  YS02001779           JUNCTION     0.76     0.96     7.64     0  04:59        0.95
  YS02001882           JUNCTION     0.27     0.45     7.16     0  02:54        0.45
  YS02001884           JUNCTION     0.37     0.54     7.16     0  02:54        0.54
  YS02001759           JUNCTION     1.06     1.27     7.64     0  05:04        1.25
  YS02001887           JUNCTION     0.44     0.62     7.16     0  02:54        0.62
  YS02001890           JUNCTION     0.47     0.65     7.16     0  02:54        0.65
  YS02001898           JUNCTION     0.25     0.41     7.14     0  02:55        0.41
  YS02001901           JUNCTION     0.36     0.54     7.14     0  02:55        0.54
  YS02001904           JUNCTION     0.34     0.51     7.14     0  02:55        0.51
  YS02001907           JUNCTION     0.67     0.85     7.14     0  02:55        0.85
  YS02001910           JUNCTION     0.46     0.64     7.14     0  02:55        0.64
  YS02001915           JUNCTION     0.26     0.42     7.14     0  02:55        0.42
  YS02001918           JUNCTION     0.07     0.09     7.16     0  03:03        0.09
  YS02001619           JUNCTION     0.55     0.70     7.63     0  05:15        0.70
  YS02001629           JUNCTION     0.89     1.09     7.64     0  05:05        1.08
  YS02001641           JUNCTION     1.00     1.31     7.75     0  04:38        1.21
  YS02001644           JUNCTION     1.00     1.31     7.74     0  04:38        1.21
  YS02001652           JUNCTION     0.85     1.09     7.69     0  05:07        1.04
  YS02001655           JUNCTION     0.61     0.80     7.65     0  05:04        0.80
  YS02001920           JUNCTION     0.17     0.20     7.21     0  03:02        0.20
  YS02001923           JUNCTION     0.06     0.08     7.34     0  03:02        0.08
  YS02001926           JUNCTION     0.14     0.17     7.62     0  03:01        0.17
  YS02001929           JUNCTION     0.06     0.08     7.78     0  03:01        0.08
  YS02001658           JUNCTION     0.35     0.48     7.63     0  05:08        0.48
  YS02001661           JUNCTION     0.16     0.25     7.65     0  05:04        0.24
  YS02001664           JUNCTION     0.06     0.11     8.04     0  02:46        0.11
  YS02001622           JUNCTION     0.57     0.72     7.63     0  05:03        0.72
  YS02001633           JUNCTION     0.98     1.24     7.69     0  04:38        1.19
  YS02001649           JUNCTION     1.04     1.27     7.66     0  04:47        1.24
  YS02001757           JUNCTION     1.16     1.37     7.63     0  05:04        1.36
  YS02001895           JUNCTION     0.24     0.41     7.15     0  02:54        0.41
  YS02001625           JUNCTION     0.85     1.03     7.63     0  05:07        1.02
  YS02163301           JUNCTION     0.92     1.15     7.67     0  04:38        1.12
  YS02163601           JUNCTION     1.04     1.33     7.73     0  04:38        1.25
  YS02164001           JUNCTION     0.98     1.28     7.74     0  04:38        1.19
  YS02001647           JUNCTION     0.84     1.12     7.73     0  04:38        1.03
  YSB1154              JUNCTION     0.23     0.38     9.44     0  02:17        0.38
  YSB6556              JUNCTION     0.13     0.27     9.44     0  02:17        0.27
  YSB1174              JUNCTION     0.18     0.33     9.44     0  02:17        0.33
  YSB1171              JUNCTION     0.38     0.53     9.44     0  02:17        0.53
  YS02006553           JUNCTION     0.67     0.86     7.14     0  02:55        0.86
  YS02006561           JUNCTION     0.13     0.22     6.88     0  02:55        0.22
  YS02006556           JUNCTION     0.65     0.83     7.14     0  02:55        0.83
  YS02006558           JUNCTION     0.69     0.87     7.14     0  02:55        0.87
  YS02001783           JUNCTION     0.23     0.39     6.53     0  02:56        0.39
  YS02001784           JUNCTION     0.26     0.42     6.49     0  02:56        0.42
  YS02001786           JUNCTION     0.22     0.36     6.39     0  02:56        0.36
  YS02001788           JUNCTION     0.16     0.27     6.24     0  02:57        0.27
  YS02001790           JUNCTION     0.20     0.32     5.97     0  02:57        0.32
  YS02001791           JUNCTION     0.13     0.21     5.68     0  02:57        0.21
  YS02001793           JUNCTION     0.08     0.14     4.97     0  02:39        0.14
  WS02004139           JUNCTION     0.55     0.61     5.52     0  00:22        0.61
  WSC                  OUTFALL      0.28     0.32     0.99     0  03:03        0.32
  3                    OUTFALL      0.04     0.13     6.13     0  00:00        0.12
  4                    OUTFALL      0.00     0.00     7.00     0  00:00        0.00
  5                    OUTFALL      0.00     0.00     5.00     0  00:00        0.00
  JK-storage           STORAGE      0.07     3.00     3.80     0  00:00        2.70
  CC-storage           STORAGE      0.43     0.60     7.60     0  05:16        0.60
  XR-storage           STORAGE      7.52     7.72     5.72     0  02:38        7.72
  
  
  *******************
  Node Inflow Summary
  *******************
  
  -------------------------------------------------------------------------------------------------
                                  Maximum  Maximum                  Lateral       Total        Flow
                                  Lateral    Total  Time of Max      Inflow      Inflow     Balance
                                   Inflow   Inflow   Occurrence      Volume      Volume       Error
  Node                 Type           LPS      LPS  days hr:min    10^6 ltr    10^6 ltr     Percent
  -------------------------------------------------------------------------------------------------
  WS02001211           JUNCTION      7.35   279.51     0  00:20       0.207        5.51       0.584
  WS02001212           JUNCTION      0.00   270.94     0  00:21           0        5.48       0.291
  WS02001213           JUNCTION      0.00   270.44     0  00:22           0        5.46       0.376
  WS02003069           JUNCTION      0.32   651.25     0  03:01     0.00902        12.4       0.210
  WS02003072           JUNCTION      0.00   651.24     0  03:02           0        12.4       0.263
  WS02003073           JUNCTION      1.82   653.06     0  03:02      0.0514        12.4       0.291
  WS02003060           JUNCTION     16.53   650.92     0  03:00       0.466        12.4       0.200
  WS02003066           JUNCTION      0.00   438.42     0  02:59           0        6.57       0.064
  WS02003059           JUNCTION      0.00   266.59     0  00:24           0        5.45       0.678
  WS02003067           JUNCTION      0.00   438.42     0  02:58           0        6.58       0.137
  WS02004401           JUNCTION      0.00   439.93     0  02:53           0        6.81       0.304
  WS02004402           JUNCTION      0.00   439.68     0  02:54           0        6.79       0.288
  WS02004403           JUNCTION      0.00   439.56     0  02:54           0        6.77       0.263
  WS02004404           JUNCTION      0.16   439.66     0  02:54     0.00457        6.75       0.200
  WS02004406           JUNCTION      0.00   439.65     0  02:55           0        6.72       0.487
  WS02004409           JUNCTION      0.00   439.62     0  02:55           0        6.68       0.230
  WS02004410           JUNCTION      0.00   439.14     0  02:56           0        6.67       0.261
  WS02004411           JUNCTION      0.00   438.79     0  02:57           0        6.65       0.270
  WS02004412           JUNCTION      0.00   438.58     0  02:57           0        6.63       0.293
  WS02004413           JUNCTION      0.00   438.46     0  02:58           0        6.61       0.438
  WS02004405           JUNCTION      0.04   439.67     0  02:54     0.00107        6.74       0.298
  WS02006109           JUNCTION      1.23   438.71     0  02:50      0.0347         6.9       0.312
  WS02006110           JUNCTION      0.00   438.71     0  02:50           0        6.88       0.278
  WS02006111           JUNCTION      0.00   450.54     0  02:51           0        6.85       0.060
  WS02006112           JUNCTION      9.07   443.13     0  02:51      0.0252        6.87       0.411
  WS02006113           JUNCTION      0.00   438.79     0  02:50           0        6.86       0.135
  WS02006115           JUNCTION      0.00   441.18     0  02:51           0        6.85       0.280
  WS02006116           JUNCTION      0.00   440.38     0  02:52           0        6.83       0.266
  WS02006230           JUNCTION     10.28   330.90     0  03:07        0.29        6.03       0.241
  WS02006231           JUNCTION      0.00   320.05     0  03:05           0        5.75       0.141
  WS02006232           JUNCTION      0.00   319.81     0  03:02           0        5.77       0.270
  WS02006234           JUNCTION      0.00   319.54     0  03:02           0        5.77       0.127
  WS02006235           JUNCTION      0.00   319.40     0  03:01           0        5.81       0.177
  WS02006238           JUNCTION      0.00   220.11     0  02:58           0        3.89       0.188
  WS02006240           JUNCTION      0.00   219.74     0  02:57           0        3.88       0.288
  WS02006242           JUNCTION      0.00   219.64     0  02:55           0        3.89       0.354
  WS02006243           JUNCTION      0.00   219.73     0  02:53           0        3.89       0.172
  WS02006245           JUNCTION      0.00   220.44     0  02:44           0        3.89       0.201
  WS02006247           JUNCTION      0.00   222.14     0  02:44           0         3.9       0.172
  WS02006248           JUNCTION      0.00   222.96     0  02:44           0         3.9       0.118
  WS02006249           JUNCTION      0.00   224.09     0  02:43           0        3.91       0.244
  WS02006239           JUNCTION      0.00   219.92     0  02:57           0        3.88       0.279
  WS02006251           JUNCTION      0.08   226.40     0  02:40     0.00217        3.92       0.224
  WS02006252           JUNCTION      0.00   200.00     0  02:40           0        3.78       0.011
  WS02006253           JUNCTION      1.40    39.76     0  02:17     0.00327       0.142       2.715
  WS02006256           JUNCTION      0.00   300.00     0  00:00           0        3.25       0.084
  WS02004138           JUNCTION      0.00   284.79     0  00:20           0        5.33       0.061
  WS02004407           JUNCTION      0.00   439.63     0  02:55           0        6.69       0.105
  WS02006228           JUNCTION      0.00   437.48     0  02:50           0        6.88       0.216
  WS02006229           JUNCTION      0.00   437.49     0  02:50           0        6.89       0.180
  WS02006280           JUNCTION      0.00   204.54     0  02:19           0       0.877       0.008
  WS02006284           JUNCTION      0.10   204.53     0  02:18      0.0027       0.878       0.121
  WS02006287           JUNCTION      0.00   204.41     0  02:18           0       0.876       0.083
  WSF200               JUNCTION      0.00   438.42     0  02:59           0        6.57       0.061
  HS02004901           JUNCTION     11.24    11.24     0  02:10      0.0304      0.0305       6.108
  HS02004881           JUNCTION      4.53    38.70     0  02:17      0.0133       0.139       0.198
  HS02004876           JUNCTION      7.17    34.49     0  02:18      0.0254       0.126       0.418
  HS02004870           JUNCTION      7.98    27.47     0  02:18      0.0251       0.101       0.105
  HS02004862           JUNCTION      6.52    20.04     0  02:18      0.0307      0.0763       0.222
  HS02004856           JUNCTION      5.91    13.57     0  02:18      0.0189      0.0471       3.151
  HS02004852           JUNCTION      0.00     8.04     0  02:18           0      0.0282       0.179
  HS02004848           JUNCTION     12.95    12.95     0  02:21      0.0597      0.0597       0.073
  HS02004842           JUNCTION      0.00     5.36     0  02:31           0      0.0445      41.292
  HS02004837           JUNCTION     19.10    23.65     0  02:17       0.223       0.254       0.321
  HS02004830           JUNCTION      0.15    23.78     0  02:18     0.00423       0.245       0.507
  HS02004824           JUNCTION     14.53    38.13     0  02:21      0.0782       0.322       0.168
  HS02004817           JUNCTION      0.60    38.72     0  02:21      0.0169       0.338       5.187
  HS02004807           JUNCTION     15.02    52.36     0  02:20      0.0461       0.367       1.163
  HS02004802           JUNCTION      0.00    52.64     0  02:21           0       0.363       1.128
  HS02004799           JUNCTION     11.54   129.64     0  02:16      0.0373       0.454       0.501
  HS02004792           JUNCTION     51.71   118.38     0  02:16       0.163       0.417       0.099
  HS02004788           JUNCTION     17.31    68.94     0  02:16      0.0989       0.254       0.154
  HS02004785           JUNCTION      0.15    52.04     0  02:16     0.00423       0.158       0.307
  HS02004777           JUNCTION      0.03    52.36     0  02:14    0.000846       0.158       3.391
  HS02004770           JUNCTION     43.83    53.68     0  02:12        0.13       0.159       1.991
  HS02004480           JUNCTION      0.00   152.81     0  02:17           0       0.529       0.137
  HS02004479           JUNCTION      0.00    23.67     0  02:18           0      0.0877       0.838
  HS02004478           JUNCTION      0.00   204.40     0  02:18           0       0.877       0.071
  YS02001745           JUNCTION     72.80    72.80     0  03:01       0.793       0.793       0.117
  YS02001748           JUNCTION      0.04    98.93     0  03:45     0.00127       0.815       0.643
  YS02001751           JUNCTION      0.01   154.77     0  02:57     0.00031       0.813       1.669
  YS02001754           JUNCTION      0.26   115.62     0  04:18     0.00733       0.787       2.621
  YS02001762           JUNCTION      0.00   125.99     0  03:00           0       0.863       2.393
  YS02001765           JUNCTION      0.00   122.54     0  03:00           0       0.864       2.609
  YS02001767           JUNCTION      0.54   143.98     0  03:02      0.0151       0.883       3.898
  YS02001770           JUNCTION     93.59   147.23     0  03:00       0.929        1.01       2.997
  YS02001774           JUNCTION      0.00    59.15     0  03:01           0       0.189      15.226
  YS02001779           JUNCTION      0.01    51.96     0  03:00    0.000141      0.0871      16.634
  YS02001882           JUNCTION      0.00     4.09     0  02:08           0     0.00513      47.777
  YS02001884           JUNCTION      0.00    11.65     0  02:08           0      0.0205      30.765
  YS02001759           JUNCTION     91.52   215.64     0  02:58       0.867         1.7       1.332
  YS02001887           JUNCTION    120.65   120.65     0  02:43        1.04        1.05       0.684
  YS02001890           JUNCTION      0.00   119.93     0  02:45           0        1.02       0.768
  YS02001898           JUNCTION      0.00   119.39     0  02:47           0        1.01       0.214
  YS02001901           JUNCTION      0.00   119.26     0  02:49           0        1.01       0.544
  YS02001904           JUNCTION      0.00   118.71     0  02:51           0        1.01       0.507
  YS02001907           JUNCTION      0.00   216.06     0  02:57           0        2.16       1.027
  YS02001910           JUNCTION      0.00    98.85     0  03:01           0        1.16       0.877
  YS02001915           JUNCTION     65.20    98.32     0  03:01       0.679        1.17       0.388
  YS02001918           JUNCTION      0.00    33.38     0  03:02           0       0.488       0.226
  YS02001619           JUNCTION     63.40    63.40     0  03:00       0.669        0.67       0.908
  YS02001629           JUNCTION      0.00   102.40     0  03:00           0       0.623       2.981
  YS02001641           JUNCTION      0.00   155.54     0  03:02           0        1.32       1.554
  YS02001644           JUNCTION     69.15   223.45     0  03:01       0.761        2.05       1.277
  YS02001652           JUNCTION      0.00   111.39     0  03:13           0        0.75       2.605
  YS02001655           JUNCTION      0.15   177.24     0  03:37     0.00434       0.783       1.929
  YS02001920           JUNCTION      2.87    33.40     0  03:02      0.0809        0.49       0.413
  YS02001923           JUNCTION      0.04    30.53     0  03:01     0.00106        0.41       0.072
  YS02001926           JUNCTION      0.05    30.56     0  03:01     0.00147       0.411       0.517
  YS02001929           JUNCTION     30.52    30.52     0  03:01        0.41        0.41       0.070
  YS02001658           JUNCTION      0.00   123.23     0  03:38           0       0.821       0.670
  YS02001661           JUNCTION      0.00    85.46     0  02:46           0       0.795       0.098
  YS02001664           JUNCTION     85.46    85.46     0  02:46       0.758       0.758       0.020
  YS02001622           JUNCTION      0.00    91.66     0  02:58           0       0.673       2.636
  YS02001633           JUNCTION     70.30   178.76     0  03:13       0.783        1.37       2.091
  YS02001649           JUNCTION      0.00   335.98     0  03:03           0        2.71       1.361
  YS02001757           JUNCTION      0.00   543.28     0  03:01           0        5.07       1.840
  YS02001895           JUNCTION      0.00   119.49     0  02:48           0        1.02       0.365
  YS02001625           JUNCTION      0.00   103.47     0  03:36           0       0.663       5.193
  YS02163301           JUNCTION      0.00   118.31     0  03:14           0       0.608       3.714
  YS02163601           JUNCTION      0.11   156.00     0  02:55      0.0031        1.33       2.220
  YS02164001           JUNCTION      0.00   159.41     0  03:04           0        1.32       1.365
  YS02001647           JUNCTION      0.00   231.19     0  03:04           0        2.01       1.241
  YSB1154              JUNCTION     12.76    12.76     0  02:15      0.0452      0.0466       3.195
  YSB6556              JUNCTION      0.00    12.71     0  02:18           0      0.0477       2.682
  YSB1174              JUNCTION     12.81    12.81     0  02:10       0.033       0.034       3.924
  YSB1171              JUNCTION      0.00    23.65     0  02:17           0      0.0872       7.815
  YS02006553           JUNCTION      0.00   216.15     0  03:02           0        2.15       0.667
  YS02006561           JUNCTION      0.00   317.11     0  02:55           0        3.04       0.021
  YS02006556           JUNCTION      0.00   216.46     0  03:02           0        2.15       0.481
  YS02006558           JUNCTION    102.08   317.12     0  02:55       0.944        3.07       0.147
  YS02001783           JUNCTION      0.00   317.10     0  02:55           0        3.04       0.050
  YS02001784           JUNCTION      1.06   318.17     0  02:56      0.0299        3.07       0.082
  YS02001786           JUNCTION      0.06   318.20     0  02:56     0.00159        3.07       0.080
  YS02001788           JUNCTION      0.07   318.27     0  02:56       0.002        3.07       0.046
  YS02001790           JUNCTION      0.15   318.42     0  02:57     0.00437        3.07       0.057
  YS02001791           JUNCTION      0.00   318.41     0  02:57           0        3.07       0.029
  YS02001793           JUNCTION      0.00   318.41     0  02:57           0        3.07       0.012
  WS02004139           JUNCTION      0.32   284.51     0  00:20     0.00905        5.33       0.573
  WSC                  OUTFALL       0.00   653.05     0  03:03           0        12.4       0.000
  3                    OUTFALL       0.00   250.55     0  00:00           0         1.3       0.000
  4                    OUTFALL       0.00     0.00     0  00:00           0           0       0.000 ltr
  5                    OUTFALL       0.00     0.00     0  00:00           0           0       0.000 ltr
  JK-storage           STORAGE       0.00   318.41     0  02:57           0        3.22      -0.892
  CC-storage           STORAGE       0.00   537.70     0  03:02           0        4.98       0.508
  XR-storage           STORAGE     318.00   318.00     0  02:55        6.97        7.57      -0.000
  
  
  **********************
  Node Surcharge Summary
  **********************
  
  Surcharging occurs when water rises above the top of the highest conduit.
  ---------------------------------------------------------------------
                                               Max. Height   Min. Depth
                                   Hours       Above Crown    Below Rim
  Node                 Type      Surcharged         Meters       Meters
  ---------------------------------------------------------------------
  WS02006109           JUNCTION        0.53          0.042        1.778
  WS02006228           JUNCTION        0.50          0.046        2.154
  YS02001762           JUNCTION        5.06          0.250        0.900
  YS02001765           JUNCTION        4.53          0.211        0.889
  YS02001767           JUNCTION        3.72          0.181        0.849
  YS02001770           JUNCTION        3.05          0.140        0.780
  YS02001774           JUNCTION        5.01          0.224        0.826
  YS02001759           JUNCTION        5.14          0.271        0.939
  YS02001641           JUNCTION        4.87          0.310        0.790
  YS02001644           JUNCTION        4.93          0.312        0.608
  YS02001652           JUNCTION        0.20          0.062        1.068
  YS02001633           JUNCTION        4.04          0.221        0.839
  YS02001649           JUNCTION        5.09          0.268        0.782
  YS02001757           JUNCTION        5.30          0.372        0.838
  YS02001625           JUNCTION        0.98          0.028        0.752
  YS02163301           JUNCTION        3.23          0.149        0.881
  YS02163601           JUNCTION        5.08          0.329        0.751
  YS02164001           JUNCTION        4.49          0.281        0.819
  YS02001647           JUNCTION        0.63          0.121        0.779
  
  
  *********************
  Node Flooding Summary
  *********************
  
  Flooding refers to all water that overflows a node, whether it ponds or not.
  --------------------------------------------------------------------------
                                                             Total   Maximum
                                 Maximum   Time of Max       Flood    Ponded
                        Hours       Rate    Occurrence      Volume     Depth
  Node                 Flooded       LPS   days hr:min    10^6 ltr    Meters
  --------------------------------------------------------------------------
  XR-storage              5.19    128.00      0  02:55       1.314     0.000
  
  
  **********************
  Storage Volume Summary
  **********************
  
  --------------------------------------------------------------------------------------------------
                         Average     Avg  Evap Exfil       Maximum     Max    Time of Max    Maximum
                          Volume    Pcnt  Pcnt  Pcnt        Volume    Pcnt     Occurrence    Outflow
  Storage Unit           1000 m3    Full  Loss  Loss       1000 m3    Full    days hr:min        LPS
  --------------------------------------------------------------------------------------------------
  JK-storage               0.004       1     0     0         0.151      52       0  00:00     300.00
  CC-storage               1.198       8     0     0         1.677      11       0  05:16     200.00
  XR-storage               0.902      97     0     0         0.926     100       0  02:38     284.79
  
  
  ***********************
  Outfall Loading Summary
  ***********************
  
  -----------------------------------------------------------
                         Flow       Avg       Max       Total
                         Freq      Flow      Flow      Volume
  Outfall Node           Pcnt       LPS       LPS    10^6 ltr
  -----------------------------------------------------------
  WSC                   99.99    510.18    653.05      12.380
  3                     62.83     94.03    250.55       1.296
  4                      0.00      0.00      0.00       0.000
  5                      0.00      0.00      0.00       0.000
  -----------------------------------------------------------
  System                40.71    604.22    853.31      13.677
  
  
  ********************
  Link Flow Summary
  ********************
  
  -----------------------------------------------------------------------------
                                 Maximum  Time of Max   Maximum    Max/    Max/
                                  |Flow|   Occurrence   |Veloc|    Full    Full
  Link                 Type          LPS  days hr:min     m/sec    Flow   Depth
  -----------------------------------------------------------------------------
  WS02003066WSF200     CONDUIT    438.42     0  02:59      2.60    0.07    0.21
  WS02006287WS02006284 CONDUIT    204.43     0  02:18      1.62    0.09    0.22
  WS02006284WS02006280 CONDUIT    204.54     0  02:19      1.86    0.09    0.20
  WS02006280WS02006229 CONDUIT    204.54     0  02:19      2.99    0.04    0.14
  WS02006229WS02006228 CONDUIT    437.48     0  02:50      0.87    1.45    1.00
  WS02006256WS02006235 CONDUIT    166.25     0  00:01      2.58    1.76    1.00
  WS02006253WS02006251 CONDUIT     39.73     0  02:18      0.49    0.12    0.61
  WS02006252WS02006251 CONDUIT    200.33     0  02:40      1.97    0.74    0.76
  WS02006251WS02006249 CONDUIT    224.09     0  02:43      0.95    0.65    0.61
  WS02006249WS02006248 CONDUIT    222.96     0  02:44      1.02    1.22    0.59
  WS02006248WS02006247 CONDUIT    222.14     0  02:44      0.98    0.48    0.61
  WS02006247WS02006245 CONDUIT    220.44     0  02:44      0.93    1.75    0.65
  WS02006245WS02006243 CONDUIT    219.73     0  02:53      0.94    0.65    0.66
  WS02006243WS02006242 CONDUIT    219.64     0  02:55      0.79    0.47    0.75
  WS02006242WS02006240 CONDUIT    219.74     0  02:57      0.72    0.87    0.82
  WS02006240WS02006239 CONDUIT    219.92     0  02:57      0.75    0.69    0.81
  WS02006239WS02006238 CONDUIT    220.11     0  02:58      0.67    0.70    0.90
  WS02006238WS02006235 CONDUIT    220.21     0  02:58      1.25    0.49    0.93
  WS02006235WS02006234 CONDUIT    319.54     0  03:02      0.94    3.37    0.87
  WS02006234WS02006232 CONDUIT    319.81     0  03:02      1.13    0.65    0.93
  WS02006232WS02006231 CONDUIT    320.05     0  03:05      0.93    0.67    0.88
  WS02006231WS02006230 CONDUIT    320.63     0  03:07      1.28    4.86    0.74
  WS02006230WS02006229 CONDUIT    331.87     0  03:06      0.86    7.39    1.00
  WS02006228WS02006109 CONDUIT    437.48     0  02:50      0.87    1.91    1.00
  WS02006116WS02004401 CONDUIT    439.93     0  02:53      0.73    0.61    0.76
  WS02006115WS02006116 CONDUIT    440.38     0  02:52      0.79    0.57    0.68
  WS02006113WS02006111 CONDUIT    450.54     0  02:51      2.29    0.54    0.41
  WS02006112WS02006115 CONDUIT    441.18     0  02:51      0.65    0.26    0.81
  WS02006111WS02006112 CONDUIT    440.01     0  02:51      1.32    0.21    0.66
  WS02006110WS02006113 CONDUIT    438.79     0  02:50      1.08    0.40    0.75
  WS02006109WS02006110 CONDUIT    438.71     0  02:50      0.89    0.84    0.96
  WS02004411WS02004412 CONDUIT    438.58     0  02:57      0.84    0.62    0.63
  WS02004401WS02004402 CONDUIT    439.68     0  02:54      0.77    0.53    0.79
  WS02004413WS02003067 CONDUIT    438.42     0  02:58      1.00    0.19    0.55
  WS02004412WS02004413 CONDUIT    438.46     0  02:58      0.72    0.29    0.72
  WS02004410WS02004411 CONDUIT    438.79     0  02:57      0.86    0.60    0.62
  WS02004409WS02004410 CONDUIT    439.14     0  02:56      0.89    0.57    0.60
  WS02004407WS02004409 CONDUIT    439.62     0  02:55      1.36    0.16    0.43
  WS02004406WS02004407 CONDUIT    439.63     0  02:55      0.92    0.20    0.58
  WS02004405WS02004406 CONDUIT    439.65     0  02:55      0.66    0.87    0.90
  WS02004404WS02004405 CONDUIT    439.63     0  02:54      0.84    4.31    0.90
  WS02004403WS02004404 CONDUIT    439.49     0  02:54      0.74    0.32    0.86
  WS02004402WS02004403 CONDUIT    439.56     0  02:54      0.75    0.63    0.81
  WS02004139WS02001211 CONDUIT    272.16     0  00:20      0.53    0.34    0.49
  WS02004138WS02004139 CONDUIT    284.18     0  00:20      2.39    0.06    0.36
  WS02003067WS02003066 CONDUIT    438.42     0  02:59      1.08    0.14    0.39
  WS02001213WS02003059 CONDUIT    266.59     0  00:24      0.57    0.44    0.64
  WS02001212WS02001213 CONDUIT    270.44     0  00:22      1.16    0.42    0.34
  WS02001211WS02001212 CONDUIT    270.94     0  00:21      0.64    0.21    0.53
  WS02003072WS02003073 CONDUIT    651.24     0  03:02      1.52    1.41    0.40
  WS02003069WS02003072 CONDUIT    651.24     0  03:02      1.44    0.31    0.42
  WS02003060WS02003069 CONDUIT    650.93     0  03:01      1.71    0.25    0.37
  WS02003059WS02003060 CONDUIT    264.92     0  00:25      0.78    0.17    0.55
  HS02004901HS02004770 CONDUIT     10.25     0  02:15      0.05    0.04    0.32
  HS02004876HS02004881 CONDUIT     34.56     0  02:18      0.56    0.37    0.09
  HS02004870HS02004876 CONDUIT     27.45     0  02:18      0.39    0.02    0.10
  HS02004842HS02004848 CONDUIT      5.36     0  02:31      0.03    0.00    0.27
  HS02004837HS02004842 CONDUIT      5.55     0  02:31      0.41    0.00    0.29
  HS02004830HS02004837 CONDUIT     23.63     0  02:18      0.44    0.02    0.08
  HS02004824HS02004830 CONDUIT     23.78     0  02:19      0.48    0.03    0.07
  HS02004817HS02004824 CONDUIT     38.12     0  02:21      0.17    0.02    0.40
  HS02004770HS02004777 CONDUIT     52.33     0  02:14      0.23    0.10    0.33
  HS02004799HS02004480 CONDUIT    129.44     0  02:16      0.59    0.16    0.31
  HS02004792HS02004799 CONDUIT    118.31     0  02:16      0.68    0.07    0.25
  HS02004788HS02004792 CONDUIT     68.88     0  02:17      0.83    0.05    0.12
  HS02004785HS02004788 CONDUIT     51.95     0  02:17      0.51    0.39    0.14
  HS02004777HS02004785 CONDUIT     51.89     0  02:16      0.27    0.06    0.27
  HS02004480HS02004478 CONDUIT    152.78     0  02:17      0.96    0.64    0.23
  HS02004479HS02004480 CONDUIT     23.89     0  02:20      0.15    0.02    0.31
  HS02004862HS02004870 CONDUIT     20.00     0  02:19      0.47    0.02    0.06
  HS02004848HS02004852 CONDUIT      8.04     0  02:18      0.31    0.01    0.04
  HS02004856HS02004862 CONDUIT     13.54     0  02:19      0.34    0.01    0.06
  HS02004852HS02004856 CONDUIT      8.00     0  02:20      0.12    0.01    0.09
  HS02004802HS02004478 CONDUIT     53.03     0  02:22      0.30    0.05    0.25
  HS02004478WS02006287 CONDUIT    204.41     0  02:18      1.31    0.06    0.17
  HS02004817HS02004807 CONDUIT     39.27     0  02:23      0.11    0.02    0.51
  HS02004807HS02004802 CONDUIT     52.64     0  02:21      0.25    0.10    0.30
  YS02001759YS02001757 CONDUIT    218.49     0  02:58      0.28    0.16    1.00
  YS02001762YS02001759 CONDUIT    124.77     0  02:58      0.17    0.14    1.00
  YS02001765YS02001762 CONDUIT    125.99     0  03:00      0.23    0.12    1.00
  YS02001770YS02001767 CONDUIT    143.44     0  03:02      0.34    0.57    1.00
  YS02001774YS02001770 CONDUIT     59.15     0  03:01      0.14    0.04    1.00
  YS02001779YS02001774 CONDUIT     55.97     0  03:00      0.08    0.03    0.98
  YS02001649YS02001757 CONDUIT    334.35     0  03:02      0.43    0.20    1.00
  YS02001767YS02001765 CONDUIT    122.54     0  03:00      0.26    0.15    1.00
  YS02006561YS02001783 CONDUIT    317.10     0  02:55      1.79    0.16    0.38
  YS02001783YS02001784 CONDUIT    317.11     0  02:56      1.24    0.44    0.51
  YS02001784YS02001785 CONDUIT    318.15     0  02:56      1.32    0.74    0.48
  YS02001788YS02001790 CONDUIT    318.26     0  02:57      1.88    0.23    0.37
  YS02001790YS02001791 CONDUIT    318.41     0  02:57      2.15    0.35    0.34
  YS02001791YS02001793 CONDUIT    318.41     0  02:57      4.41    0.14    0.21
  YS02001910YS02001907 CONDUIT     98.94     0  03:01      0.49    0.06    0.74
  YS02001786YS02001788 CONDUIT    318.20     0  02:56      1.75    0.61    0.39
  YS02001915YS02001910 CONDUIT     98.85     0  03:01      0.44    0.05    0.53
  YS02001918YS02001915 CONDUIT     33.36     0  03:03      0.44    0.02    0.26
  YS02001923YS02001920 CONDUIT     30.53     0  03:02      0.45    0.01    0.14
  YS02001926YS02001923 CONDUIT     30.49     0  03:01      0.49    0.04    0.13
  YS02001929YS02001926 CONDUIT     30.51     0  03:01      0.52    0.01    0.13
  YS02001920YS02001918 CONDUIT     33.38     0  03:02      0.46    0.03    0.15
  YS02001629YS02163301 CONDUIT    118.31     0  03:14      0.16    0.15    1.00
  YS02001619YS02001622 CONDUIT     91.66     0  02:58      0.66    0.14    0.71
  YS02001622YS02001625 CONDUIT     94.97     0  03:27      0.25    0.05    0.86
  YS02001625YS02001629 CONDUIT    102.40     0  03:00      0.25    0.05    0.85
  YS02163301YS02001633 CONDUIT    114.52     0  03:13      0.15    0.11    1.00
  YS02163601YS02164001 CONDUIT    159.41     0  03:04      0.20    0.14    1.00
  YS02164001YS02001641 CONDUIT    155.54     0  03:02      0.20    0.21    1.00
  YS02001641YS02001644 CONDUIT    154.46     0  03:01      0.20    0.50    1.00
  YS02001647YS02001649 CONDUIT    234.45     0  02:56      0.31    0.12    1.00
  YS02006553YS02006556 CONDUIT    216.46     0  03:02      0.31    0.19    0.82
  YS02006556YS02006558 CONDUIT    216.69     0  03:02      0.31    0.17    0.85
  YSB6556YSB1171       CONDUIT     12.91     0  02:19      0.06    0.01    0.57
  YS02001907YS02006553 CONDUIT    216.15     0  03:02      0.26    0.25    0.93
  YS02006558YS02006561 CONDUIT    317.11     0  02:55      2.29    0.70    0.49
  YS02001633YS02163601 CONDUIT    155.89     0  02:55      0.20    0.16    1.00
  YS02001644YS02001647 CONDUIT    231.19     0  03:04      0.30    0.14    1.00
  YS02001745YS02001748 CONDUIT     72.79     0  03:01      1.40    0.03    0.29
  YS02001748YS02001751 CONDUIT    154.76     0  02:57      1.09    0.08    0.64
  YS02001751YS02001754 CONDUIT    103.91     0  04:29      0.97    0.05    0.85
  YS02001754YS02001757 CONDUIT    136.90     0  03:00      0.33    0.06    1.00
  YS02001882YS02001884 CONDUIT      4.09     0  02:08      0.06    0.00    0.47
  YS02001884YS02001887 CONDUIT     11.65     0  02:08      0.06    0.02    0.56
  YS02001890YS02001895 CONDUIT    119.49     0  02:48      0.29    0.06    0.53
  YS02001895YS02001898 CONDUIT    119.39     0  02:47      0.49    0.21    0.39
  YS02001898YS02001901 CONDUIT    119.26     0  02:49      0.33    0.08    0.47
  YS02001901YS02001904 CONDUIT    118.71     0  02:51      0.29    0.18    0.52
  YS02001904YS02001907 CONDUIT    118.89     0  02:52      0.21    0.04    0.68
  YS02001887YS02001890 CONDUIT    119.93     0  02:45      0.24    0.21    0.61
  YS02001652YS02001649 CONDUIT    152.32     0  03:33      0.33    0.08    1.00
  YS02001655YS02001652 CONDUIT    111.39     0  03:13      1.05    0.05    0.90
  YS02001658YS02001655 CONDUIT    177.09     0  03:37      1.26    0.08    0.64
  YS02001661YS02001658 CONDUIT     92.48     0  04:48      1.45    0.04    0.31
  YS02001664YS02001661 CONDUIT     85.46     0  02:46      1.11    0.03    0.15
  YSB1154YSB6556       CONDUIT     12.71     0  02:18      0.19    0.02    0.46
  YSB1174YSB1171       CONDUIT     11.85     0  02:11      0.06    0.02    0.58
  YSB1171HS02004479    CONDUIT     23.67     0  02:18      0.54    0.02    0.45
  HS02004881HS02006253 CONDUIT     38.69     0  02:18      1.66    0.01    0.09
  YS02001793JiankangQianchi CONDUIT    318.41     0  02:57     13.02    0.03    0.50
  YS02001757CaochengTiaoxuchi CONDUIT    537.70     0  03:02      1.07    0.24    0.80
  WSF200WS02003060     CONDUIT    438.40     0  02:59      1.62    0.10    0.29
  1                    CONDUIT    653.05     0  03:03      2.96    0.23    0.32
  2                    CONDUIT      0.00     0  00:00      0.00    0.00    0.00
  3                    CONDUIT    250.55     0  00:00      8.26    0.40    0.46
  4                    CONDUIT      0.00     0  00:00      0.00    0.00    0.00
  CC-Pump-1            PUMP       200.00     0  02:40              1.00
  CC-Pump-2            PUMP         0.00     0  00:00              0.00
  JK-Pump-1            PUMP       300.00     0  00:00              1.00
  JK-Pump-2            PUMP         1.36     0  00:16              0.00
  XR-Pump-1            PUMP        95.00     0  00:00              1.00
  XR-Pump-2            PUMP        95.00     0  01:40              1.00
  XR-Pump-3            PUMP        95.00     0  00:20              1.00
  XR-Pump-4            PUMP        95.00     0  01:40              1.00
  
  
  ***************************
  Flow Classification Summary
  ***************************
  
  -------------------------------------------------------------------------------------
                      Adjusted    ---------- Fraction of Time in Flow Class ---------- 
                       /Actual         Up    Down  Sub   Sup   Up    Down  Norm  Inlet 
  Conduit               Length    Dry  Dry   Dry   Crit  Crit  Crit  Crit  Ltd   Ctrl  
  -------------------------------------------------------------------------------------
  WS02003066WSF200        1.00   0.06  0.00  0.00  0.00  0.94  0.00  0.00  0.76  0.00
  WS02006287WS02006284    1.00   0.04  0.02  0.00  0.71  0.23  0.00  0.00  0.77  0.00
  WS02006284WS02006280    1.00   0.05  0.00  0.00  0.00  0.00  0.00  0.95  0.00  0.00
  WS02006280WS02006229    1.00   0.05  0.00  0.00  0.00  0.00  0.00  0.95  0.00  0.00
  WS02006229WS02006228    1.00   0.00  0.00  0.00  0.99  0.00  0.00  0.01  0.00  0.00
  WS02006256WS02006235    1.00   0.00  0.00  0.00  1.00  0.00  0.00  0.00  0.00  0.00
  WS02006253WS02006251    1.00   0.03  0.01  0.00  0.95  0.00  0.00  0.00  0.00  0.00
  WS02006252WS02006251    1.00   0.11  0.00  0.00  0.00  0.00  0.89  0.00  0.00  0.00
  WS02006251WS02006249    1.00   0.00  0.00  0.00  1.00  0.00  0.00  0.00  0.27  0.00
  WS02006249WS02006248    1.00   0.00  0.02  0.00  0.88  0.00  0.09  0.00  0.00  0.00
  WS02006248WS02006247    1.00   0.02  0.00  0.00  0.97  0.00  0.00  0.00  0.19  0.00
  WS02006247WS02006245    1.00   0.02  0.00  0.00  0.98  0.00  0.00  0.00  0.00  0.00
  WS02006245WS02006243    1.00   0.01  0.00  0.00  0.94  0.00  0.00  0.04  0.01  0.00
  WS02006243WS02006242    1.00   0.01  0.00  0.00  0.99  0.00  0.00  0.00  0.27  0.00
  WS02006242WS02006240    1.00   0.00  0.00  0.00  1.00  0.00  0.00  0.00  0.00  0.00
  WS02006240WS02006239    1.00   0.00  0.00  0.00  0.95  0.00  0.00  0.04  0.01  0.00
  WS02006239WS02006238    1.00   0.00  0.00  0.00  1.00  0.00  0.00  0.00  0.01  0.00
  WS02006238WS02006235    1.00   0.00  0.00  0.00  1.00  0.00  0.00  0.00  0.00  0.00
  WS02006235WS02006234    1.00   0.00  0.00  0.00  0.95  0.00  0.05  0.00  0.00  0.00
  WS02006234WS02006232    1.00   0.00  0.00  0.00  1.00  0.00  0.00  0.00  0.16  0.00
  WS02006232WS02006231    1.00   0.00  0.00  0.00  0.99  0.00  0.00  0.00  0.00  0.00
  WS02006231WS02006230    1.00   0.00  0.00  0.00  0.31  0.00  0.69  0.00  0.00  0.00
  WS02006230WS02006229    1.00   0.00  0.00  0.00  0.98  0.00  0.00  0.02  0.01  0.00
  WS02006228WS02006109    1.00   0.00  0.00  0.00  1.00  0.00  0.00  0.00  0.00  0.00
  WS02006116WS02004401    1.00   0.03  0.00  0.00  0.97  0.00  0.00  0.00  0.00  0.00
  WS02006115WS02006116    1.00   0.03  0.00  0.00  0.97  0.00  0.00  0.01  0.00  0.00
  WS02006113WS02006111    1.00   0.02  0.00  0.00  0.00  0.98  0.00  0.00  0.11  0.00
  WS02006112WS02006115    1.00   0.02  0.00  0.00  0.97  0.00  0.00  0.00  0.00  0.00
  WS02006111WS02006112    1.00   0.02  0.00  0.00  0.97  0.00  0.00  0.00  0.98  0.00
  WS02006110WS02006113    1.00   0.01  0.01  0.00  0.98  0.00  0.00  0.00  0.00  0.00
  WS02006109WS02006110    1.00   0.00  0.01  0.00  0.98  0.00  0.01  0.00  0.00  0.00
  WS02004411WS02004412    1.00   0.04  0.00  0.00  0.96  0.00  0.00  0.00  0.00  0.00
  WS02004401WS02004402    1.00   0.03  0.00  0.00  0.97  0.00  0.00  0.00  0.00  0.00
  WS02004413WS02003067    1.00   0.04  0.01  0.00  0.00  0.00  0.94  0.00  0.00  0.00
  WS02004412WS02004413    1.00   0.04  0.00  0.00  0.96  0.00  0.00  0.00  0.03  0.00
  WS02004410WS02004411    1.00   0.04  0.00  0.00  0.96  0.00  0.00  0.00  0.04  0.00
  WS02004409WS02004410    1.00   0.04  0.00  0.00  0.96  0.00  0.00  0.00  0.04  0.00
  WS02004407WS02004409    1.00   0.04  0.00  0.00  0.96  0.00  0.00  0.00  0.89  0.00
  WS02004406WS02004407    1.00   0.00  0.04  0.00  0.96  0.00  0.00  0.00  0.00  0.00
  WS02004405WS02004406    1.00   0.00  0.00  0.00  1.00  0.00  0.00  0.00  0.00  0.00
  WS02004404WS02004405    1.00   0.00  0.00  0.00  1.00  0.00  0.00  0.00  0.00  0.00
  WS02004403WS02004404    1.00   0.00  0.03  0.00  0.97  0.00  0.00  0.00  0.01  0.00
  WS02004402WS02004403    1.00   0.03  0.00  0.00  0.97  0.00  0.00  0.00  0.00  0.00
  WS02004139WS02001211    1.00   0.00  0.00  0.00  0.99  0.00  0.01  0.00  0.00  0.00
  WS02004138WS02004139    1.00   0.00  0.00  0.00  0.99  0.01  0.00  0.00  1.00  0.00
  WS02003067WS02003066    1.00   0.06  0.00  0.00  0.94  0.00  0.00  0.00  0.00  0.00
  WS02001213WS02003059    1.00   0.00  0.01  0.00  0.99  0.00  0.00  0.00  0.00  0.00
  WS02001212WS02001213    1.00   0.01  0.00  0.00  0.89  0.00  0.10  0.00  0.00  0.00
  WS02001211WS02001212    1.00   0.00  0.01  0.00  0.99  0.00  0.00  0.00  0.00  0.00
  WS02003072WS02003073    1.00   0.00  0.00  0.00  0.00  0.00  0.00  1.00  0.00  0.00
  WS02003069WS02003072    1.00   0.00  0.00  0.00  0.99  0.01  0.00  0.00  0.28  0.00
  WS02003060WS02003069    1.00   0.00  0.00  0.00  0.99  0.01  0.00  0.00  0.23  0.00
  WS02003059WS02003060    1.00   0.00  0.00  0.00  1.00  0.00  0.00  0.00  0.02  0.00
  HS02004901HS02004770    1.00   0.05  0.00  0.00  0.95  0.00  0.00  0.00  0.03  0.00
  HS02004876HS02004881    1.00   0.02  0.00  0.00  0.98  0.00  0.00  0.00  0.00  0.00
  HS02004870HS02004876    1.00   0.01  0.00  0.00  0.99  0.00  0.00  0.00  0.95  0.00
  HS02004842HS02004848    1.00   0.00  0.05  0.00  0.95  0.00  0.00  0.00  0.69  0.00
  HS02004837HS02004842    1.00   0.00  0.00  0.00  0.99  0.01  0.00  0.00  0.11  0.00
  HS02004830HS02004837    1.00   0.00  0.00  0.00  1.00  0.00  0.00  0.00  0.99  0.00
  HS02004824HS02004830    1.00   0.00  0.00  0.00  1.00  0.00  0.00  0.00  0.00  0.00
  HS02004817HS02004824    1.00   0.00  0.00  0.00  1.00  0.00  0.00  0.00  1.00  0.00
  HS02004770HS02004777    1.00   0.00  0.05  0.00  0.95  0.00  0.00  0.00  0.07  0.00
  HS02004799HS02004480    1.00   0.00  0.03  0.00  0.94  0.00  0.03  0.00  0.00  0.00
  HS02004792HS02004799    1.00   0.00  0.00  0.00  0.99  0.01  0.00  0.00  0.98  0.00
  HS02004788HS02004792    1.00   0.00  0.00  0.00  0.99  0.01  0.00  0.00  0.98  0.00
  HS02004785HS02004788    1.00   0.00  0.00  0.00  1.00  0.00  0.00  0.00  0.00  0.00
  HS02004777HS02004785    1.00   0.00  0.00  0.00  1.00  0.00  0.00  0.00  0.21  0.00
  HS02004480HS02004478    1.00   0.05  0.00  0.00  0.75  0.00  0.00  0.20  0.00  0.00
  HS02004479HS02004480    1.00   0.03  0.00  0.00  0.97  0.00  0.00  0.00  0.16  0.00
  HS02004862HS02004870    1.00   0.00  0.00  0.00  1.00  0.00  0.00  0.00  0.05  0.00
  HS02004848HS02004852    1.00   0.05  0.00  0.00  0.95  0.00  0.00  0.00  0.71  0.00
  HS02004856HS02004862    1.00   0.00  0.07  0.00  0.93  0.00  0.00  0.00  0.74  0.00
  HS02004852HS02004856    1.00   0.05  0.01  0.00  0.95  0.00  0.00  0.00  0.82  0.00
  HS02004802HS02004478    1.00   0.05  0.01  0.00  0.95  0.00  0.00  0.00  0.00  0.00
  HS02004478WS02006287    1.00   0.06  0.00  0.00  0.89  0.06  0.00  0.00  0.77  0.00
  HS02004817HS02004807    1.00   0.00  0.05  0.00  0.95  0.00  0.00  0.00  0.00  0.00
  HS02004807HS02004802    1.00   0.05  0.00  0.00  0.95  0.00  0.00  0.00  0.01  0.00
  YS02001759YS02001757    1.00   0.00  0.00  0.00  1.00  0.00  0.00  0.00  0.17  0.00
  YS02001762YS02001759    1.00   0.00  0.00  0.00  1.00  0.00  0.00  0.00  0.05  0.00
  YS02001765YS02001762    1.00   0.00  0.00  0.00  1.00  0.00  0.00  0.00  0.22  0.00
  YS02001770YS02001767    1.00   0.00  0.00  0.00  1.00  0.00  0.00  0.00  0.00  0.00
  YS02001774YS02001770    1.00   0.00  0.05  0.00  0.94  0.00  0.00  0.00  0.06  0.00
  YS02001779YS02001774    1.00   0.00  0.00  0.00  1.00  0.00  0.00  0.00  0.26  0.00
  YS02001649YS02001757    1.00   0.00  0.00  0.00  1.00  0.00  0.00  0.00  0.19  0.00
  YS02001767YS02001765    1.00   0.00  0.00  0.00  1.00  0.00  0.00  0.00  0.01  0.00
  YS02006561YS02001783    1.00   0.07  0.00  0.00  0.00  0.93  0.00  0.00  0.73  0.00
  YS02001783YS02001784    1.00   0.00  0.07  0.00  0.93  0.00  0.00  0.00  0.00  0.00
  YS02001784YS02001785    1.00   0.00  0.00  0.00  1.00  0.00  0.00  0.00  0.25  0.00
  YS02001788YS02001790    1.00   0.00  0.00  0.00  0.07  0.93  0.00  0.00  0.77  0.00
  YS02001790YS02001791    1.00   0.00  0.00  0.00  0.02  0.98  0.00  0.00  0.54  0.00
  YS02001791YS02001793    1.00   0.00  0.00  0.00  0.00  1.00  0.00  0.00  0.00  0.00
  YS02001910YS02001907    1.00   0.00  0.00  0.00  0.97  0.00  0.00  0.03  0.13  0.00
  YS02001786YS02001788    1.00   0.00  0.00  0.00  0.08  0.92  0.00  0.00  0.00  0.00
  YS02001915YS02001910    1.00   0.00  0.00  0.00  0.99  0.01  0.00  0.00  0.24  0.00
  YS02001918YS02001915    1.00   0.00  0.01  0.00  0.98  0.02  0.00  0.00  0.81  0.00
  YS02001923YS02001920    1.00   0.00  0.00  0.00  1.00  0.00  0.00  0.00  1.00  0.00
  YS02001926YS02001923    1.00   0.00  0.04  0.00  0.00  0.00  0.96  0.00  0.00  0.00
  YS02001929YS02001926    1.00   0.00  0.05  0.00  0.95  0.00  0.00  0.00  0.87  0.00
  YS02001920YS02001918    1.00   0.00  0.01  0.00  0.99  0.00  0.00  0.00  0.00  0.00
  YS02001629YS02163301    1.00   0.06  0.00  0.00  0.93  0.00  0.00  0.00  0.00  0.00
  YS02001619YS02001622    1.00   0.05  0.00  0.00  0.95  0.00  0.00  0.00  0.00  0.00
  YS02001622YS02001625    1.00   0.05  0.00  0.00  0.95  0.00  0.00  0.00  0.13  0.00
  YS02001625YS02001629    1.00   0.05  0.03  0.00  0.91  0.00  0.01  0.00  0.00  0.00
  YS02163301YS02001633    1.00   0.00  0.06  0.00  0.94  0.00  0.00  0.00  0.00  0.00
  YS02163601YS02164001    1.00   0.00  0.04  0.00  0.96  0.00  0.00  0.00  0.00  0.00
  YS02164001YS02001641    1.00   0.01  0.03  0.00  0.96  0.00  0.00  0.00  0.07  0.00
  YS02001641YS02001644    1.00   0.00  0.01  0.00  0.99  0.00  0.00  0.00  0.00  0.00
  YS02001647YS02001649    1.00   0.00  0.07  0.00  0.93  0.00  0.00  0.00  0.01  0.00
  YS02006553YS02006556    1.00   0.02  0.00  0.00  0.98  0.00  0.00  0.00  0.03  0.00
  YS02006556YS02006558    1.00   0.00  0.00  0.00  1.00  0.00  0.00  0.00  0.00  0.00
  YSB6556YSB1171          1.00   0.03  0.02  0.00  0.96  0.00  0.00  0.00  0.00  0.00
  YS02001907YS02006553    1.00   0.00  0.02  0.00  0.97  0.00  0.00  0.00  0.00  0.00
  YS02006558YS02006561    1.00   0.07  0.00  0.00  0.00  0.93  0.00  0.00  0.72  0.00
  YS02001633YS02163601    1.00   0.00  0.01  0.00  0.99  0.00  0.00  0.00  0.20  0.00
  YS02001644YS02001647    1.00   0.00  0.07  0.00  0.93  0.00  0.00  0.00  0.00  0.00
  YS02001745YS02001748    1.00   0.00  0.00  0.00  0.87  0.01  0.00  0.12  0.55  0.00
  YS02001748YS02001751    1.00   0.00  0.00  0.00  0.98  0.02  0.00  0.00  0.24  0.00
  YS02001751YS02001754    1.00   0.00  0.00  0.00  0.92  0.00  0.00  0.08  0.02  0.00
  YS02001754YS02001757    1.00   0.00  0.00  0.00  0.99  0.01  0.00  0.00  0.26  0.00
  YS02001882YS02001884    1.00   0.06  0.00  0.00  0.94  0.00  0.00  0.00  0.00  0.00
  YS02001884YS02001887    1.00   0.03  0.01  0.00  0.96  0.00  0.00  0.00  0.00  0.00
  YS02001890YS02001895    1.00   0.00  0.06  0.00  0.93  0.00  0.00  0.00  0.00  0.00
  YS02001895YS02001898    1.00   0.07  0.00  0.00  0.93  0.00  0.01  0.00  0.00  0.00
  YS02001898YS02001901    1.00   0.06  0.00  0.00  0.93  0.00  0.00  0.00  0.02  0.00
  YS02001901YS02001904    1.00   0.06  0.00  0.00  0.94  0.00  0.00  0.00  0.00  0.00
  YS02001904YS02001907    1.00   0.00  0.06  0.00  0.94  0.00  0.00  0.00  0.00  0.00
  YS02001887YS02001890    1.00   0.00  0.00  0.00  0.97  0.00  0.02  0.00  0.00  0.00
  YS02001652YS02001649    1.00   0.00  0.00  0.00  1.00  0.00  0.00  0.00  0.26  0.00
  YS02001655YS02001652    1.00   0.00  0.00  0.00  0.92  0.00  0.00  0.08  0.02  0.00
  YS02001658YS02001655    1.00   0.00  0.06  0.00  0.92  0.02  0.00  0.00  0.11  0.00
  YS02001661YS02001658    1.00   0.06  0.00  0.00  0.86  0.08  0.00  0.00  0.41  0.00
  YS02001664YS02001661    1.00   0.05  0.00  0.00  0.78  0.18  0.00  0.00  0.86  0.00
  YSB1154YSB6556          1.00   0.04  0.00  0.00  0.96  0.00  0.00  0.00  0.02  0.00
  YSB1174YSB1171          1.00   0.03  0.01  0.00  0.96  0.00  0.00  0.00  0.00  0.00
  YSB1171HS02004479       1.00   0.03  0.00  0.00  0.97  0.00  0.00  0.00  0.13  0.00
  HS02004881HS02006253    1.00   0.03  0.00  0.00  0.87  0.01  0.00  0.10  0.67  0.00
  YS02001793JiankangQianchi    1.00   0.00  0.00  0.00  0.02  0.98  0.00  0.00  0.10  0.00
  YS02001757CaochengTiaoxuchi    1.00   0.00  0.08  0.00  0.92  0.00  0.00  0.00  0.00  0.00
  WSF200WS02003060        1.00   0.00  0.06  0.00  0.75  0.18  0.00  0.00  0.08  0.00
  1                       1.00   0.00  0.00  0.00  0.00  1.00  0.00  0.00  0.60  0.00
  2                       1.00   1.00  0.00  0.00  0.00  0.00  0.00  0.00  0.00  0.00
  3                       1.00   0.37  0.00  0.00  0.00  0.63  0.00  0.00  0.27  0.00
  4                       1.00   1.00  0.00  0.00  0.00  0.00  0.00  0.00  0.00  0.00
  
  
  *************************
  Conduit Surcharge Summary
  *************************
  
  ----------------------------------------------------------------------------
                                                           Hours        Hours 
                         --------- Hours Full --------   Above Full   Capacity
  Conduit                Both Ends  Upstream  Dnstream   Normal Flow   Limited
  ----------------------------------------------------------------------------
  WS02006229WS02006228        0.50      0.56      0.50      4.09         0.50
  WS02006256WS02006235        5.68      5.68      6.32      3.35         0.01
  WS02006249WS02006248        0.01      0.01      0.01      5.18         0.01
  WS02006247WS02006245        0.01      0.01      0.01      5.22         0.01
  WS02006235WS02006234        0.01      0.01      0.01      5.70         0.01
  WS02006231WS02006230        0.01      0.01      0.01      5.70         0.01
  WS02006230WS02006229        1.09      3.07      1.09      5.79         1.09
  WS02006228WS02006109        0.53      0.73      0.53      5.56         0.53
  WS02006111WS02006112        0.01      0.01      4.77      0.01         0.01
  WS02006110WS02006113        0.01      0.01      0.62      0.01         0.01
  WS02006109WS02006110        0.01      0.01      0.73      0.01         0.01
  WS02004404WS02004405        0.01      0.01      0.01      5.60         0.01
  WS02003072WS02003073        0.01      0.01      0.01      5.35         0.01
  YS02001759YS02001757        5.14      5.14      5.30      0.01         0.01
  YS02001762YS02001759        5.06      5.06      5.14      0.01         0.01
  YS02001765YS02001762        4.53      4.53      5.06      0.01         0.01
  YS02001770YS02001767        3.57      3.59      3.72      0.01         0.55
  YS02001774YS02001770        3.05      3.05      5.01      0.01         0.01
  YS02001779YS02001774        0.01      0.01      5.01      0.01         0.01
  YS02001649YS02001757        5.09      5.09      5.30      0.01         0.01
  YS02001767YS02001765        3.72      3.72      4.53      0.01         0.01
  YS02001629YS02163301        2.62      2.62      3.23      0.01         0.01
  YS02001622YS02001625        0.01      0.01      0.98      0.01         0.01
  YS02001625YS02001629        0.01      0.01      0.98      0.01         0.01
  YS02163301YS02001633        3.23      3.23      4.62      0.01         0.01
  YS02163601YS02164001        4.49      4.49      5.08      0.01         0.01
  YS02164001YS02001641        4.49      4.49      4.87      0.01         0.01
  YS02001641YS02001644        4.87      4.87      4.93      0.01         0.41
  YS02001647YS02001649        0.63      0.63      5.09      0.01         0.01
  YS02001633YS02163601        4.04      4.04      5.08      0.01         0.01
  YS02001644YS02001647        0.63      0.63      4.93      0.01         0.01
  YS02001754YS02001757        0.59      0.59      5.30      0.01         0.01
  YS02001652YS02001649        1.00      1.00      5.09      0.01         0.01
  YS02001655YS02001652        0.01      0.01      0.20      0.01         0.01
  YS02001793JiankangQianchi        0.01      0.01      0.09      0.01         0.01
  YS02001757CaochengTiaoxuchi        0.01      0.01      5.30      0.01         0.01
  
  
  ***************
  Pumping Summary
  ***************
  
  ---------------------------------------------------------------------------------------------------------
                                                  Min       Avg       Max     Total     Power    % Time Off
                        Percent   Number of      Flow      Flow      Flow    Volume     Usage    Pump Curve
  Pump                 Utilized   Start-Ups       LPS       LPS       LPS  10^6 ltr     Kw-hr    Low   High
  ---------------------------------------------------------------------------------------------------------
  CC-Pump-1               68.08           1      0.00    197.12    200.00     3.780     11.35    0.0   12.4
  CC-Pump-2                0.00           0      0.00      0.00      0.00     0.000      0.00    0.0    0.0
  JK-Pump-1              100.00           1      0.00    146.53    300.00     3.248     62.24    0.0    0.0
  JK-Pump-2                4.25           1      0.00      1.30      1.36     0.002      0.03    0.0    0.0
  XR-Pump-1               29.79           2      0.00     81.38     95.00     0.713      6.96    0.0    0.0
  XR-Pump-2               76.60           2      0.00     93.07     95.00     1.966      9.81    0.0    0.0
  XR-Pump-3               27.65           2      0.00     75.72     95.00     0.627      6.03    0.0    0.0
  XR-Pump-4               80.85           3      0.00     92.64     95.00     2.023     10.40    0.0    0.0
  

  Analysis begun on:  Thu Jan  6 01:45:50 2022
  Analysis ended on:  Thu Jan  6 01:45:53 2022
  Total elapsed time: 00:00:03