
  EPA STORM WATER MANAGEMENT MODEL - VERSION 5.1 (Build 5.3.0.dev0)
  --------------------------------------------------------------

  WARNING 04: minimum elevation drop used for Conduit WS02004404WS02004405
  WARNING 03: negative offset ignored for Link YS02001904YS02001907
  
  *********************************************************
  NOTE: The summary statistics displayed in this report are
  based on results found at every computational time step,  
  not just on results from each reporting time step.
  *********************************************************
  
  ****************
  Analysis Options
  ****************
  Flow Units ............... LPS
  Process Models:
    Rainfall/Runoff ........ YES
    RDII ................... NO
    Snowmelt ............... NO
    Groundwater ............ NO
    Flow Routing ........... YES
    Ponding Allowed ........ NO
    Water Quality .......... NO
  Infiltration Method ...... HORTON
  Flow Routing Method ...... DYNWAVE
  Surcharge Method ......... EXTRAN
  Starting Date ............ 08/28/2015 08:00:00
  Ending Date .............. 08/28/2015 15:50:00
  Antecedent Dry Days ...... 8.0
  Report Time Step ......... 00:01:00
  Wet Time Step ............ 00:01:00
  Dry Time Step ............ 00:01:00
  Routing Time Step ........ 5.00 sec
  Variable Time Step ....... YES
  Maximum Trials ........... 8
  Number of Threads ........ 4
  Head Tolerance ........... 0.001500 m
  
  
  **************************        Volume         Depth
  Runoff Quantity Continuity     hectare-m            mm
  **************************     ---------       -------
  Total Precipitation ......         1.913         4.188
  Evaporation Loss .........         0.000         0.000
  Infiltration Loss ........         0.472         1.033
  Surface Runoff ...........         0.641         1.403
  Final Storage ............         0.800         1.752
  Continuity Error (%) .....        -0.017
  
  
  **************************        Volume        Volume
  Flow Routing Continuity        hectare-m      10^6 ltr
  **************************     ---------     ---------
  Dry Weather Inflow .......         0.616         6.165
  Wet Weather Inflow .......         0.641         6.405
  Groundwater Inflow .......         0.000         0.000
  RDII Inflow ..............         0.000         0.000
  External Inflow ..........         0.102         1.024
  External Outflow .........         1.157        11.566
  Flooding Loss ............         0.075         0.754
  Evaporation Loss .........         0.000         0.000
  Exfiltration Loss ........         0.000         0.000
  Initial Stored Volume ....         0.076         0.761
  Final Stored Volume ......         0.208         2.079
  Continuity Error (%) .....        -0.311
  
  
  *************************
  Highest Continuity Errors
  *************************
  Node HS02004842 (36.86%)
  Node YS02001884 (31.01%)
  Node YS02001774 (16.41%)
  Node YSB1171 (10.57%)
  Node HS02004901 (8.82%)
  
  
  ***************************
  Time-Step Critical Elements
  ***************************
  Link WS02006252WS02006251 (89.41%)
  Link 3 (3.25%)
  Link WS02006280WS02006229 (3.18%)
  
  
  ********************************
  Highest Flow Instability Indexes
  ********************************
  Link WS02006113WS02006111 (50)
  Link WS02006111WS02006112 (30)
  Link YS02001754YS02001757 (3)
  Link YS02001751YS02001754 (3)
  Link YS02001652YS02001649 (3)
  
  
  *************************
  Routing Time Step Summary
  *************************
  Minimum Time Step           :     0.32 sec
  Average Time Step           :     1.02 sec
  Maximum Time Step           :     5.00 sec
  Percent in Steady State     :    -0.00
  Average Iterations per Step :     2.00
  Percent Not Converging      :     0.00
  
  
  ***************************
  Subcatchment Runoff Summary
  ***************************
  
  ------------------------------------------------------------------------------------------------------------------------------
                            Total      Total      Total      Total     Imperv       Perv      Total       Total     Peak  Runoff
                           Precip      Runon       Evap      Infil     Runoff     Runoff     Runoff      Runoff   Runoff   Coeff
  Subcatchment                 mm         mm         mm         mm         mm         mm         mm    10^6 ltr      LPS
  ------------------------------------------------------------------------------------------------------------------------------
  sub0                       4.19       0.00       0.00       0.29       2.63       0.00       2.63        0.00     0.86   0.628
  sub1                       4.19       0.00       0.00       0.46       2.47       0.00       2.47        0.02     4.27   0.591
  sub2                       4.19       0.00       0.00       1.55       1.74       0.00       1.74        0.02     3.73   0.414
  sub3                       4.19       0.00       0.00       1.55       1.70       0.00       1.70        0.04     7.55   0.407
  sub4                       4.19       0.00       0.00       0.46       2.35       0.00       2.35        0.05     8.35   0.561
  sub5                       4.19       0.00       0.00       0.29       2.59       0.00       2.59        0.03     7.60   0.617
  sub7                       4.19       0.00       0.00       0.38       2.56       0.00       2.56        0.01     2.74   0.611
  sub8                       4.19       0.00       0.00       0.38       2.55       0.00       2.55        0.02     4.79   0.609
  sub9                       4.19       0.00       0.00       0.38       2.55       0.00       2.55        0.01     3.55   0.608
  sub10                      4.19       0.00       0.00       0.34       2.56       0.00       2.56        0.03     7.61   0.612
  sub11                      4.19       0.00       0.00       0.34       2.58       0.00       2.58        0.03     9.04   0.616
  sub12                      4.19       0.00       0.00       0.54       2.46       0.00       2.46        0.02     7.83   0.586
  sub14                      4.19       0.00       0.00       0.38       2.54       0.00       2.54        0.02     6.92   0.608
  sub15                      4.19       0.00       0.00       1.26       1.95       0.00       1.95        0.03     9.37   0.467
  sub16                      4.19       0.00       0.00       1.38       1.89       0.00       1.89        0.02     6.84   0.451
  sub17                      4.19       0.00       0.00       1.34       1.91       0.00       1.91        0.02     5.50   0.457
  sub22                      4.19       0.00       0.00       1.80       1.60       0.00       1.60        0.10    31.00   0.382
  sub23                      4.19       0.00       0.00       1.55       1.77       0.00       1.77        0.08    26.47   0.422
  sub60                      4.19       0.00       0.00       0.50       1.53       0.00       1.53        0.46    38.61   0.365
  sub61                      4.19       0.00       0.00       0.71       1.69       0.00       1.69        0.52    49.57   0.403
  sub62                      4.19       0.00       0.00       0.34       1.79       0.00       1.79        0.55    50.32   0.428
  sub63                      4.19       0.00       0.00       1.21       1.52       0.00       1.52        0.46    46.71   0.363
  sub64                      4.19       0.00       0.00       0.63       1.46       0.00       1.46        0.44    36.61   0.348
  sub65                      4.19       0.00       0.00       0.54       1.47       0.00       1.47        0.45    37.08   0.351
  sub66                      4.19       0.00       0.00       1.21       1.28       0.00       1.28        0.39    33.80   0.307
  sub67                      4.19       0.00       0.00       0.34       2.02       0.00       2.02        0.62    66.03   0.483
  sub68                      4.19       0.00       0.00       0.59       1.81       0.00       1.81        0.56    55.14   0.432
  sub69                      4.19       0.00       0.00       0.63       2.01       0.00       2.01        0.47    56.20   0.479
  sub70                      4.19       2.05       0.00       2.12       2.30       0.00       2.30        0.53    40.91   0.370
  sub71                      4.19       0.00       0.00       0.34       1.69       0.00       1.69        0.40    34.83   0.405
  sub72                      4.19       0.00       0.00       0.29       1.12       0.00       1.12        0.23    15.77   0.268
  sub73                      4.19       2.24       0.00       2.19       2.24       0.00       2.24        0.53    34.82   0.348
  sub74                      4.19       0.00       0.00       3.14       0.61       0.00       0.61        0.24    31.66   0.146
  
  
  ******************
  Node Depth Summary
  ******************
  
  ---------------------------------------------------------------------------------
                                 Average  Maximum  Maximum  Time of Max    Reported
                                   Depth    Depth      HGL   Occurrence   Max Depth
  Node                 Type       Meters   Meters   Meters  days hr:min      Meters
  ---------------------------------------------------------------------------------
  WS02001211           JUNCTION     0.61     0.67     5.51     0  00:22        0.67
  WS02001212           JUNCTION     0.34     0.39     5.45     0  00:22        0.39
  WS02001213           JUNCTION     0.56     0.61     5.37     0  03:05        0.61
  WS02003069           JUNCTION     0.38     0.45     5.04     0  03:05        0.45
  WS02003072           JUNCTION     0.45     0.52     4.89     0  03:05        0.52
  WS02003073           JUNCTION     0.27     0.31     4.38     0  03:06        0.31
  WS02003060           JUNCTION     0.34     0.40     5.33     0  03:04        0.40
  WS02003066           JUNCTION     0.21     0.26     5.82     0  03:02        0.26
  WS02003059           JUNCTION     0.62     0.67     5.36     0  03:05        0.67
  WS02003067           JUNCTION     0.53     0.64     5.96     0  03:02        0.64
  WS02004401           JUNCTION     0.61     0.74     6.74     0  02:57        0.74
  WS02004402           JUNCTION     0.64     0.77     6.73     0  02:57        0.77
  WS02004403           JUNCTION     0.66     0.79     6.72     0  02:58        0.79
  WS02004404           JUNCTION     0.74     0.87     6.72     0  02:58        0.87
  WS02004406           JUNCTION     0.75     0.87     6.70     0  02:58        0.87
  WS02004409           JUNCTION     0.43     0.56     6.33     0  03:01        0.56
  WS02004410           JUNCTION     0.45     0.58     6.30     0  03:01        0.58
  WS02004411           JUNCTION     0.47     0.59     6.27     0  03:01        0.59
  WS02004412           JUNCTION     0.49     0.61     6.25     0  03:01        0.61
  WS02004413           JUNCTION     0.65     0.77     6.24     0  03:02        0.77
  WS02004405           JUNCTION     0.74     0.86     6.71     0  02:58        0.86
  WS02006109           JUNCTION     0.67     0.82     7.43     0  02:52        0.82
  WS02006110           JUNCTION     0.68     0.81     7.39     0  02:53        0.81
  WS02006111           JUNCTION     0.19     0.24     6.95     0  02:53        0.24
  WS02006112           JUNCTION     0.77     0.92     6.80     0  02:57        0.92
  WS02006113           JUNCTION     0.29     0.38     7.28     0  02:53        0.38
  WS02006115           JUNCTION     0.50     0.63     6.77     0  02:57        0.63
  WS02006116           JUNCTION     0.58     0.71     6.75     0  02:57        0.71
  WS02006230           JUNCTION     0.61     0.80     7.54     0  02:53        0.80
  WS02006231           JUNCTION     0.41     0.52     7.64     0  02:55        0.52
  WS02006232           JUNCTION     0.54     0.66     7.70     0  02:55        0.66
  WS02006234           JUNCTION     0.45     0.57     7.73     0  02:56        0.57
  WS02006235           JUNCTION     0.48     0.60     7.77     0  02:56        0.60
  WS02006238           JUNCTION     0.50     0.63     7.77     0  02:56        0.63
  WS02006240           JUNCTION     0.39     0.52     7.81     0  02:57        0.52
  WS02006242           JUNCTION     0.44     0.58     7.85     0  02:57        0.58
  WS02006243           JUNCTION     0.32     0.45     7.87     0  02:57        0.45
  WS02006245           JUNCTION     0.32     0.42     7.91     0  02:56        0.42
  WS02006247           JUNCTION     0.34     0.45     7.95     0  02:56        0.45
  WS02006248           JUNCTION     0.29     0.39     7.97     0  02:56        0.39
  WS02006249           JUNCTION     0.33     0.42     8.02     0  02:54        0.42
  WS02006239           JUNCTION     0.45     0.58     7.79     0  02:57        0.58
  WS02006251           JUNCTION     0.32     0.41     8.08     0  02:52        0.41
  WS02006252           JUNCTION     0.28     0.35     8.59     0  02:40        0.35
  WS02006253           JUNCTION     0.34     0.44     8.08     0  02:52        0.44
  WS02006256           JUNCTION     0.88     1.15     8.09     0  00:00        1.10
  WS02004138           JUNCTION     0.14     0.17     7.42     0  00:20        0.17
  WS02004407           JUNCTION     0.19     0.25     6.57     0  02:58        0.25
  WS02006228           JUNCTION     0.66     0.82     7.47     0  02:52        0.82
  WS02006229           JUNCTION     0.63     0.80     7.49     0  02:52        0.80
  WS02006280           JUNCTION     0.05     0.11     8.38     0  02:22        0.11
  WS02006284           JUNCTION     0.33     0.44     8.83     0  02:22        0.44
  WS02006287           JUNCTION     0.07     0.16     9.12     0  02:22        0.16
  WSF200               JUNCTION     0.19     0.26     5.49     0  03:02        0.26
  HS02004901           JUNCTION     0.10     0.19    10.01     0  02:20        0.19
  HS02004881           JUNCTION     0.00     0.02     9.05     0  02:21        0.02
  HS02004876           JUNCTION     0.03     0.09     9.12     0  02:21        0.09
  HS02004870           JUNCTION     0.01     0.03     9.32     0  02:21        0.03
  HS02004862           JUNCTION     0.01     0.03     9.42     0  02:23        0.03
  HS02004856           JUNCTION     0.07     0.09     9.52     0  02:22        0.09
  HS02004852           JUNCTION     0.00     0.02     9.53     0  02:23        0.02
  HS02004848           JUNCTION     0.00     0.02     9.62     0  02:20        0.02
  HS02004842           JUNCTION     0.32     0.35     9.62     0  02:19        0.35
  HS02004837           JUNCTION     0.02     0.04     9.62     0  02:20        0.04
  HS02004830           JUNCTION     0.03     0.05     9.52     0  02:20        0.05
  HS02004824           JUNCTION     0.02     0.03     9.43     0  02:23        0.03
  HS02004817           JUNCTION     0.41     0.49     9.34     0  02:22        0.49
  HS02004807           JUNCTION     0.10     0.16     9.33     0  02:22        0.16
  HS02004802           JUNCTION     0.14     0.20     9.33     0  02:22        0.20
  HS02004799           JUNCTION     0.09     0.20     9.41     0  02:21        0.20
  HS02004792           JUNCTION     0.02     0.07     9.59     0  02:20        0.07
  HS02004788           JUNCTION     0.01     0.05     9.95     0  02:21        0.05
  HS02004785           JUNCTION     0.03     0.10    10.00     0  02:21        0.10
  HS02004777           JUNCTION     0.12     0.21    10.01     0  02:21        0.21
  HS02004770           JUNCTION     0.09     0.18    10.01     0  02:21        0.18
  HS02004480           JUNCTION     0.05     0.15     9.39     0  02:21        0.15
  HS02004479           JUNCTION     0.09     0.19     9.39     0  02:21        0.19
  HS02004478           JUNCTION     0.04     0.09     9.32     0  02:22        0.09
  YS02001745           JUNCTION     0.06     0.09     7.60     0  03:01        0.09
  YS02001748           JUNCTION     0.07     0.12     7.20     0  03:09        0.12
  YS02001751           JUNCTION     0.21     0.33     7.21     0  03:16        0.33
  YS02001754           JUNCTION     0.46     0.63     7.23     0  03:37        0.62
  YS02001762           JUNCTION     0.65     0.81     7.21     0  03:06        0.80
  YS02001765           JUNCTION     0.60     0.76     7.21     0  03:06        0.76
  YS02001767           JUNCTION     0.57     0.72     7.21     0  03:06        0.71
  YS02001770           JUNCTION     0.56     0.71     7.20     0  03:07        0.71
  YS02001774           JUNCTION     0.63     0.78     7.20     0  03:06        0.78
  YS02001779           JUNCTION     0.39     0.52     7.20     0  03:07        0.52
  YS02001882           JUNCTION     0.22     0.33     7.04     0  02:54        0.33
  YS02001884           JUNCTION     0.32     0.43     7.04     0  02:55        0.43
  YS02001759           JUNCTION     0.68     0.84     7.20     0  03:05        0.84
  YS02001887           JUNCTION     0.39     0.51     7.04     0  02:55        0.51
  YS02001890           JUNCTION     0.42     0.54     7.04     0  02:54        0.54
  YS02001898           JUNCTION     0.20     0.29     7.03     0  02:56        0.29
  YS02001901           JUNCTION     0.31     0.42     7.03     0  02:56        0.42
  YS02001904           JUNCTION     0.29     0.40     7.03     0  02:55        0.40
  YS02001907           JUNCTION     0.62     0.74     7.03     0  02:56        0.74
  YS02001910           JUNCTION     0.41     0.52     7.03     0  02:56        0.52
  YS02001915           JUNCTION     0.21     0.31     7.03     0  02:57        0.31
  YS02001918           JUNCTION     0.06     0.07     7.14     0  03:04        0.07
  YS02001619           JUNCTION     0.17     0.28     7.21     0  03:03        0.28
  YS02001629           JUNCTION     0.51     0.66     7.20     0  03:07        0.65
  YS02001641           JUNCTION     0.62     0.77     7.20     0  03:05        0.77
  YS02001644           JUNCTION     0.62     0.77     7.20     0  03:06        0.77
  YS02001652           JUNCTION     0.47     0.61     7.21     0  03:14        0.61
  YS02001655           JUNCTION     0.24     0.35     7.20     0  03:06        0.35
  YS02001920           JUNCTION     0.15     0.17     7.17     0  03:03        0.17
  YS02001923           JUNCTION     0.05     0.06     7.32     0  03:02        0.06
  YS02001926           JUNCTION     0.11     0.13     7.58     0  03:02        0.13
  YS02001929           JUNCTION     0.05     0.06     7.76     0  03:01        0.06
  YS02001658           JUNCTION     0.06     0.10     7.24     0  02:47        0.10
  YS02001661           JUNCTION     0.12     0.16     7.57     0  02:47        0.16
  YS02001664           JUNCTION     0.05     0.08     8.01     0  02:46        0.08
  YS02001622           JUNCTION     0.19     0.30     7.21     0  03:03        0.30
  YS02001633           JUNCTION     0.60     0.75     7.20     0  03:07        0.75
  YS02001649           JUNCTION     0.66     0.81     7.20     0  03:05        0.81
  YS02001757           JUNCTION     0.78     0.95     7.21     0  03:08        0.95
  YS02001895           JUNCTION     0.19     0.29     7.04     0  02:55        0.29
  YS02001625           JUNCTION     0.47     0.60     7.21     0  03:04        0.60
  YS02163301           JUNCTION     0.54     0.69     7.20     0  03:01        0.69
  YS02163601           JUNCTION     0.66     0.81     7.21     0  03:06        0.81
  YS02164001           JUNCTION     0.60     0.75     7.20     0  03:05        0.74
  YS02001647           JUNCTION     0.45     0.59     7.20     0  03:05        0.59
  YSB1154              JUNCTION     0.23     0.33     9.39     0  02:21        0.33
  YSB6556              JUNCTION     0.12     0.22     9.39     0  02:21        0.22
  YSB1174              JUNCTION     0.18     0.28     9.39     0  02:21        0.28
  YSB1171              JUNCTION     0.38     0.49     9.39     0  02:21        0.49
  YS02006553           JUNCTION     0.62     0.74     7.03     0  02:56        0.74
  YS02006561           JUNCTION     0.11     0.16     6.82     0  02:57        0.16
  YS02006556           JUNCTION     0.60     0.71     7.03     0  02:57        0.71
  YS02006558           JUNCTION     0.64     0.76     7.03     0  02:57        0.76
  YS02001783           JUNCTION     0.18     0.28     6.42     0  02:57        0.28
  YS02001784           JUNCTION     0.22     0.31     6.38     0  02:57        0.31
  YS02001786           JUNCTION     0.18     0.27     6.30     0  02:57        0.27
  YS02001788           JUNCTION     0.13     0.19     6.17     0  02:58        0.19
  YS02001790           JUNCTION     0.16     0.24     5.88     0  02:58        0.24
  YS02001791           JUNCTION     0.10     0.16     5.63     0  02:58        0.16
  YS02001793           JUNCTION     0.07     0.10     4.94     0  02:58        0.10
  WS02004139           JUNCTION     0.55     0.61     5.52     0  00:22        0.61
  WSC                  OUTFALL      0.27     0.31     0.98     0  03:07        0.31
  3                    OUTFALL      0.02     0.13     6.13     0  00:00        0.10
  4                    OUTFALL      0.00     0.00     7.00     0  00:00        0.00
  5                    OUTFALL      0.00     0.00     5.00     0  00:00        0.00
  JK-storage           STORAGE      0.04     3.00     3.80     0  00:00        2.70
  CC-storage           STORAGE      0.04     0.09     7.09     0  04:04        0.09
  XR-storage           STORAGE      7.47     7.72     5.72     0  02:59        7.72
  
  
  *******************
  Node Inflow Summary
  *******************
  
  -------------------------------------------------------------------------------------------------
                                  Maximum  Maximum                  Lateral       Total        Flow
                                  Lateral    Total  Time of Max      Inflow      Inflow     Balance
                                   Inflow   Inflow   Occurrence      Volume      Volume       Error
  Node                 Type           LPS      LPS  days hr:min    10^6 ltr    10^6 ltr     Percent
  -------------------------------------------------------------------------------------------------
  WS02001211           JUNCTION      7.35   279.51     0  00:20       0.207        5.51       0.580
  WS02001212           JUNCTION      0.00   270.94     0  00:21           0        5.48       0.286
  WS02001213           JUNCTION      0.00   270.44     0  00:22           0        5.46       0.345
  WS02003069           JUNCTION      0.32   606.12     0  03:04     0.00902        11.2       0.181
  WS02003072           JUNCTION      0.00   606.12     0  03:05           0        11.2       0.238
  WS02003073           JUNCTION      1.82   607.93     0  03:06      0.0514        11.2       0.255
  WS02003060           JUNCTION     16.53   605.80     0  03:04       0.466        11.2       0.174
  WS02003066           JUNCTION      0.00   392.89     0  03:02           0        5.33       0.055
  WS02003059           JUNCTION      0.00   266.59     0  00:24           0        5.45       0.624
  WS02003067           JUNCTION      0.00   392.88     0  03:02           0        5.34       0.127
  WS02004401           JUNCTION      0.00   394.16     0  02:56           0         5.5       0.288
  WS02004402           JUNCTION      0.00   393.94     0  02:56           0        5.49       0.280
  WS02004403           JUNCTION      0.00   393.82     0  02:57           0        5.47       0.262
  WS02004404           JUNCTION      0.16   393.92     0  02:57     0.00457        5.46       0.206
  WS02004406           JUNCTION      0.00   393.91     0  02:58           0        5.44       0.506
  WS02004409           JUNCTION      0.00   393.89     0  02:58           0         5.4       0.176
  WS02004410           JUNCTION      0.00   393.49     0  02:59           0         5.4       0.212
  WS02004411           JUNCTION      0.00   393.20     0  03:00           0        5.38       0.229
  WS02004412           JUNCTION      0.00   393.02     0  03:00           0        5.37       0.263
  WS02004413           JUNCTION      0.00   392.92     0  03:01           0        5.36       0.413
  WS02004405           JUNCTION      0.04   393.93     0  02:57     0.00107        5.45       0.309
  WS02006109           JUNCTION      1.23   393.92     0  02:52      0.0347        5.58       0.312
  WS02006110           JUNCTION      0.00   393.91     0  02:52           0        5.56       0.260
  WS02006111           JUNCTION      0.00   401.91     0  02:53           0        5.54       0.049
  WS02006112           JUNCTION      5.50   396.46     0  02:53      0.0164        5.55       0.415
  WS02006113           JUNCTION      0.00   393.94     0  02:53           0        5.54       0.102
  WS02006115           JUNCTION      0.00   395.21     0  02:54           0        5.53       0.235
  WS02006116           JUNCTION      0.00   394.53     0  02:55           0        5.52       0.232
  WS02006230           JUNCTION     10.28   320.33     0  03:02        0.29        4.93       0.192
  WS02006231           JUNCTION      0.00   309.75     0  03:02           0        4.65       0.144
  WS02006232           JUNCTION      0.00   309.60     0  03:02           0        4.66       0.248
  WS02006234           JUNCTION      0.00   309.43     0  03:01           0        4.66       0.070
  WS02006235           JUNCTION      0.00   309.34     0  03:01           0         4.7       0.159
  WS02006238           JUNCTION      0.00   212.64     0  02:59           0        3.08       0.138
  WS02006240           JUNCTION      0.00   212.47     0  02:57           0        3.07       0.171
  WS02006242           JUNCTION      0.00   212.48     0  02:56           0        3.07       0.227
  WS02006243           JUNCTION      0.00   212.72     0  02:53           0        3.06       0.051
  WS02006245           JUNCTION      0.00   213.07     0  02:50           0        3.06       0.121
  WS02006247           JUNCTION      0.00   214.01     0  02:45           0        3.07       0.103
  WS02006248           JUNCTION      0.00   214.50     0  02:46           0        3.07       0.047
  WS02006249           JUNCTION      0.00   215.40     0  02:43           0        3.07       0.173
  WS02006239           JUNCTION      0.00   212.54     0  02:58           0        3.08       0.181
  WS02006251           JUNCTION      0.08   217.19     0  02:41     0.00217        3.09       0.128
  WS02006252           JUNCTION      0.00   200.00     0  02:40           0        2.99       0.008
  WS02006253           JUNCTION      0.86    23.05     0  02:21     0.00213      0.0987       1.359
  WS02006256           JUNCTION      0.00   300.00     0  00:00           0        2.04       0.115
  WS02004138           JUNCTION      0.00   284.79     0  00:20           0        5.33       0.061
  WS02004407           JUNCTION      0.00   393.90     0  02:58           0        5.41       0.083
  WS02006228           JUNCTION      0.00   392.70     0  02:52           0        5.55       0.199
  WS02006229           JUNCTION      0.00   392.72     0  02:52           0        5.56       0.168
  WS02006280           JUNCTION      0.00   124.71     0  02:23           0       0.639       0.011
  WS02006284           JUNCTION      0.10   124.72     0  02:22      0.0027        0.64       0.177
  WS02006287           JUNCTION      0.00   124.63     0  02:22           0       0.638       0.108
  WSF200               JUNCTION      0.00   392.89     0  03:02           0        5.33       0.047
  HS02004901           JUNCTION      6.84     6.84     0  02:13      0.0198      0.0199       9.677
  HS02004881           JUNCTION      2.74    22.41     0  02:21     0.00861      0.0892       0.237
  HS02004876           JUNCTION      4.27    19.93     0  02:21      0.0164      0.0811       0.641
  HS02004870           JUNCTION      4.79    15.78     0  02:21      0.0163      0.0648       0.163
  HS02004862           JUNCTION      3.93    11.36     0  02:21      0.0218      0.0486       0.343
  HS02004856           JUNCTION      3.55     7.48     0  02:20      0.0122      0.0283       5.362
  HS02004852           JUNCTION      0.00     4.19     0  02:21           0      0.0161       0.295
  HS02004848           JUNCTION      7.55     7.55     0  02:23      0.0383      0.0383       0.109
  HS02004842           JUNCTION      0.00     4.47     0  00:03           0      0.0353      58.375
  HS02004837           JUNCTION     13.96    17.18     0  02:19       0.207        0.23       0.355
  HS02004830           JUNCTION      0.15    17.32     0  02:20     0.00423        0.22       0.563
  HS02004824           JUNCTION      8.40    25.62     0  02:23      0.0504       0.269       0.200
  HS02004817           JUNCTION      0.60    26.22     0  02:23      0.0169       0.285       6.196
  HS02004807           JUNCTION      9.04    34.38     0  02:22        0.03       0.299       1.434
  HS02004802           JUNCTION      0.00    34.42     0  02:24           0       0.295       1.393
  HS02004799           JUNCTION      6.92    76.88     0  02:20      0.0242       0.312       0.725
  HS02004792           JUNCTION     31.28    70.22     0  02:19       0.109       0.288       0.145
  HS02004788           JUNCTION     11.04    40.96     0  02:21      0.0807        0.18       0.218
  HS02004785           JUNCTION      0.15    30.43     0  02:20     0.00423       0.102       0.472
  HS02004777           JUNCTION      0.03    30.88     0  02:18    0.000846       0.102       5.354
  HS02004770           JUNCTION     26.47    32.11     0  02:16      0.0843       0.102       3.116
  HS02004480           JUNCTION      0.00    90.48     0  02:20           0        0.36       0.189
  HS02004479           JUNCTION      0.00    13.94     0  02:23           0      0.0603       1.221
  HS02004478           JUNCTION      0.00   124.63     0  02:22           0       0.639       0.103
  YS02001745           JUNCTION     38.62    38.62     0  03:01       0.463       0.463       0.075
  YS02001748           JUNCTION      0.04    38.66     0  03:01     0.00127       0.464       0.052
  YS02001751           JUNCTION      0.01    81.04     0  03:44     0.00031       0.591       0.307
  YS02001754           JUNCTION      0.26   187.43     0  03:43     0.00733        1.02       0.919
  YS02001762           JUNCTION      0.00    60.62     0  03:18           0       0.594       2.291
  YS02001765           JUNCTION      0.00    83.39     0  03:27           0       0.584       2.440
  YS02001767           JUNCTION      0.54    60.54     0  02:58      0.0151       0.589       3.404
  YS02001770           JUNCTION     50.47    56.82     0  02:49       0.555       0.576       2.870
  YS02001774           JUNCTION      0.00    28.90     0  02:30           0      0.0882      19.637
  YS02001779           JUNCTION      0.01    13.07     0  02:29    0.000141      0.0527      10.839
  YS02001882           JUNCTION      0.00     2.38     0  02:12           0     0.00344      71.254
  YS02001884           JUNCTION      0.00     7.38     0  02:07           0       0.014      44.950
  YS02001759           JUNCTION     49.61   118.82     0  03:33       0.521        1.09       1.474
  YS02001887           JUNCTION     66.48    66.48     0  02:44       0.637       0.643       1.034
  YS02001890           JUNCTION      0.00    66.10     0  02:47           0       0.625       1.174
  YS02001898           JUNCTION      0.00    65.83     0  02:50           0       0.614       0.292
  YS02001901           JUNCTION      0.00    65.87     0  02:50           0       0.614       0.813
  YS02001904           JUNCTION      0.00    65.57     0  02:51           0       0.614       0.759
  YS02001907           JUNCTION      0.00   118.57     0  02:57           0        1.31       1.644
  YS02001910           JUNCTION      0.00    53.70     0  03:01           0       0.704       1.362
  YS02001915           JUNCTION     34.85    53.37     0  03:01         0.4       0.707       0.552
  YS02001918           JUNCTION      0.00    18.67     0  03:03           0       0.308       0.268
  YS02001619           JUNCTION     33.80    33.80     0  02:59       0.393       0.393       0.137
  YS02001629           JUNCTION      0.00    38.58     0  02:39           0       0.377       1.429
  YS02001641           JUNCTION      0.00    77.17     0  03:13           0       0.799       1.606
  YS02001644           JUNCTION     36.65   109.54     0  03:04       0.444        1.22       1.267
  YS02001652           JUNCTION      0.00    59.44     0  03:47           0       0.514       1.685
  YS02001655           JUNCTION      0.15    46.86     0  02:47     0.00434        0.47       0.699
  YS02001920           JUNCTION      2.87    18.68     0  03:02      0.0809        0.31       0.552
  YS02001923           JUNCTION      0.04    15.81     0  03:02     0.00106       0.229       0.097
  YS02001926           JUNCTION      0.05    15.81     0  03:01     0.00147       0.229       0.706
  YS02001929           JUNCTION     15.77    15.77     0  03:01       0.228       0.228       0.091
  YS02001658           JUNCTION      0.00    46.71     0  02:47           0       0.459       0.042
  YS02001661           JUNCTION      0.00    46.71     0  02:46           0       0.459       0.159
  YS02001664           JUNCTION     46.71    46.71     0  02:46        0.46        0.46       0.031
  YS02001622           JUNCTION      0.00    35.57     0  03:03           0       0.393       0.630
  YS02001633           JUNCTION     37.28    77.42     0  02:38       0.458       0.822       2.257
  YS02001649           JUNCTION      0.00   177.44     0  03:21           0        1.68       1.400
  YS02001757           JUNCTION      0.00   395.73     0  03:40           0        3.48       2.033
  YS02001895           JUNCTION      0.00    65.90     0  02:49           0       0.618       0.513
  YS02001625           JUNCTION      0.00    36.81     0  02:47           0        0.39       3.878
  YS02163301           JUNCTION      0.00    40.06     0  03:13           0       0.377       3.301
  YS02163601           JUNCTION      0.11    75.79     0  03:13      0.0031       0.804       2.388
  YS02164001           JUNCTION      0.00    76.13     0  03:13           0       0.794       1.470
  YS02001647           JUNCTION      0.00   111.74     0  03:06           0         1.2       0.973
  YSB1154              JUNCTION      7.60     7.60     0  02:17      0.0293      0.0307       4.937
  YSB6556              JUNCTION      0.00     7.51     0  02:20           0      0.0317       4.079
  YSB1174              JUNCTION      7.83     7.83     0  02:12      0.0214      0.0225       6.060
  YSB1171              JUNCTION      0.00    13.95     0  02:20           0      0.0597      11.824
  YS02006553           JUNCTION      0.00   118.63     0  03:02           0         1.3       1.071
  YS02006561           JUNCTION      0.00   174.03     0  02:57           0        1.83       0.029
  YS02006556           JUNCTION      0.00   118.80     0  03:02           0         1.3       0.767
  YS02006558           JUNCTION     56.02   174.04     0  02:56        0.58        1.86       0.231
  YS02001783           JUNCTION      0.00   174.02     0  02:57           0        1.83       0.066
  YS02001784           JUNCTION      1.06   175.08     0  02:57      0.0299        1.86       0.111
  YS02001786           JUNCTION      0.06   175.12     0  02:57     0.00159        1.86       0.109
  YS02001788           JUNCTION      0.07   175.18     0  02:57       0.002        1.86       0.060
  YS02001790           JUNCTION      0.15   175.33     0  02:58     0.00437        1.86       0.078
  YS02001791           JUNCTION      0.00   175.33     0  02:58           0        1.86       0.038
  YS02001793           JUNCTION      0.00   175.33     0  02:58           0        1.86       0.017
  WS02004139           JUNCTION      0.32   284.51     0  00:20     0.00905        5.33       0.569
  WSC                  OUTFALL       0.00   607.92     0  03:07           0        11.2       0.000
  3                    OUTFALL       0.00   250.55     0  00:00           0       0.399       0.000
  4                    OUTFALL       0.00     0.00     0  00:00           0           0       0.000 ltr
  5                    OUTFALL       0.00     0.00     0  00:00           0           0       0.000 ltr
  JK-storage           STORAGE       0.00   175.33     0  02:58           0        2.01      -1.424
  CC-storage           STORAGE       0.00   285.10     0  03:05           0        2.99      -0.000
  XR-storage           STORAGE     263.35   263.35     0  02:52        6.41        7.01       0.000
  
  
  **********************
  Node Surcharge Summary
  **********************
  
  No nodes were surcharged.
  
  
  *********************
  Node Flooding Summary
  *********************
  
  Flooding refers to all water that overflows a node, whether it ponds or not.
  --------------------------------------------------------------------------
                                                             Total   Maximum
                                 Maximum   Time of Max       Flood    Ponded
                        Hours       Rate    Occurrence      Volume     Depth
  Node                 Flooded       LPS   days hr:min    10^6 ltr    Meters
  --------------------------------------------------------------------------
  XR-storage              4.84     73.08      0  02:59       0.754     0.000
  
  
  **********************
  Storage Volume Summary
  **********************
  
  --------------------------------------------------------------------------------------------------
                         Average     Avg  Evap Exfil       Maximum     Max    Time of Max    Maximum
                          Volume    Pcnt  Pcnt  Pcnt        Volume    Pcnt     Occurrence    Outflow
  Storage Unit           1000 m3    Full  Loss  Loss       1000 m3    Full    days hr:min        LPS
  --------------------------------------------------------------------------------------------------
  JK-storage               0.002       1     0     0         0.151      52       0  00:00     300.00
  CC-storage               0.103       1     0     0         0.263       2       0  04:04     200.00
  XR-storage               0.896      97     0     0         0.926     100       0  02:59     284.79
  
  
  ***********************
  Outfall Loading Summary
  ***********************
  
  -----------------------------------------------------------
                         Flow       Avg       Max       Total
                         Freq      Flow      Flow      Volume
  Outfall Node           Pcnt       LPS       LPS    10^6 ltr
  -----------------------------------------------------------
  WSC                   99.99    465.10    607.92      11.167
  3                     44.92     45.59    250.55       0.399
  4                      0.00      0.00      0.00       0.000
  5                      0.00      0.00      0.00       0.000
  -----------------------------------------------------------
  System                36.23    510.69    684.47      11.566
  
  
  ********************
  Link Flow Summary
  ********************
  
  -----------------------------------------------------------------------------
                                 Maximum  Time of Max   Maximum    Max/    Max/
                                  |Flow|   Occurrence   |Veloc|    Full    Full
  Link                 Type          LPS  days hr:min     m/sec    Flow   Depth
  -----------------------------------------------------------------------------
  WS02003066WSF200     CONDUIT    392.89     0  03:02      2.53    0.07    0.19
  WS02006287WS02006284 CONDUIT    124.62     0  02:22      1.36    0.06    0.17
  WS02006284WS02006280 CONDUIT    124.71     0  02:23      1.61    0.05    0.16
  WS02006280WS02006229 CONDUIT    124.72     0  02:23      2.57    0.03    0.11
  WS02006229WS02006228 CONDUIT    392.70     0  02:52      0.83    1.30    0.99
  WS02006256WS02006235 CONDUIT    166.25     0  00:01      2.58    1.76    1.00
  WS02006253WS02006251 CONDUIT     42.72     0  05:50      0.40    0.13    0.60
  WS02006252WS02006251 CONDUIT    200.33     0  02:40      2.16    0.74    0.76
  WS02006251WS02006249 CONDUIT    215.40     0  02:43      0.94    0.62    0.59
  WS02006249WS02006248 CONDUIT    214.50     0  02:46      1.02    1.18    0.56
  WS02006248WS02006247 CONDUIT    214.01     0  02:45      0.98    0.47    0.59
  WS02006247WS02006245 CONDUIT    213.07     0  02:50      0.94    1.69    0.61
  WS02006245WS02006243 CONDUIT    212.72     0  02:53      0.97    0.63    0.62
  WS02006243WS02006242 CONDUIT    212.48     0  02:56      0.80    0.45    0.71
  WS02006242WS02006240 CONDUIT    212.47     0  02:57      0.70    0.84    0.78
  WS02006240WS02006239 CONDUIT    212.54     0  02:58      0.74    0.67    0.76
  WS02006239WS02006238 CONDUIT    212.64     0  02:59      0.67    0.68    0.85
  WS02006238WS02006235 CONDUIT    212.70     0  02:59      1.25    0.47    0.88
  WS02006235WS02006234 CONDUIT    309.43     0  03:01      0.93    3.26    0.82
  WS02006234WS02006232 CONDUIT    309.60     0  03:02      1.13    0.63    0.88
  WS02006232WS02006231 CONDUIT    309.75     0  03:02      0.92    0.65    0.83
  WS02006231WS02006230 CONDUIT    310.05     0  03:02      1.28    4.70    0.67
  WS02006230WS02006229 CONDUIT    320.89     0  03:02      0.86    7.14    1.00
  WS02006228WS02006109 CONDUIT    392.69     0  02:52      0.78    1.72    1.00
  WS02006116WS02004401 CONDUIT    394.16     0  02:56      0.73    0.54    0.73
  WS02006115WS02006116 CONDUIT    394.53     0  02:55      0.79    0.51    0.64
  WS02006113WS02006111 CONDUIT    401.91     0  02:53      2.20    0.48    0.39
  WS02006112WS02006115 CONDUIT    395.21     0  02:54      0.62    0.23    0.77
  WS02006111WS02006112 CONDUIT    394.53     0  02:53      1.32    0.19    0.65
  WS02006110WS02006113 CONDUIT    393.94     0  02:53      0.99    0.36    0.74
  WS02006109WS02006110 CONDUIT    393.91     0  02:52      0.81    0.76    0.93
  WS02004411WS02004412 CONDUIT    393.02     0  03:00      0.80    0.56    0.60
  WS02004401WS02004402 CONDUIT    393.94     0  02:56      0.77    0.47    0.75
  WS02004413WS02003067 CONDUIT    392.88     0  03:02      0.94    0.17    0.53
  WS02004412WS02004413 CONDUIT    392.92     0  03:01      0.68    0.26    0.69
  WS02004410WS02004411 CONDUIT    393.20     0  03:00      0.82    0.54    0.59
  WS02004409WS02004410 CONDUIT    393.49     0  02:59      0.85    0.51    0.57
  WS02004407WS02004409 CONDUIT    393.89     0  02:58      1.33    0.14    0.41
  WS02004406WS02004407 CONDUIT    393.90     0  02:58      0.87    0.18    0.56
  WS02004405WS02004406 CONDUIT    393.91     0  02:58      0.66    0.78    0.87
  WS02004404WS02004405 CONDUIT    393.90     0  02:57      0.84    3.86    0.86
  WS02004403WS02004404 CONDUIT    393.76     0  02:57      0.74    0.28    0.83
  WS02004402WS02004403 CONDUIT    393.82     0  02:57      0.75    0.57    0.78
  WS02004139WS02001211 CONDUIT    272.16     0  00:20      0.53    0.34    0.49
  WS02004138WS02004139 CONDUIT    284.18     0  00:20      2.39    0.06    0.36
  WS02003067WS02003066 CONDUIT    392.89     0  03:02      1.01    0.13    0.38
  WS02001213WS02003059 CONDUIT    266.59     0  00:24      0.57    0.44    0.63
  WS02001212WS02001213 CONDUIT    270.44     0  00:22      1.16    0.42    0.34
  WS02001211WS02001212 CONDUIT    270.94     0  00:21      0.64    0.21    0.53
  WS02003072WS02003073 CONDUIT    606.11     0  03:06      1.48    1.31    0.39
  WS02003069WS02003072 CONDUIT    606.12     0  03:05      1.41    0.29    0.41
  WS02003060WS02003069 CONDUIT    605.80     0  03:04      1.68    0.24    0.36
  WS02003059WS02003060 CONDUIT    264.92     0  00:25      0.78    0.17    0.54
  HS02004901HS02004770 CONDUIT      6.02     0  02:18      0.03    0.02    0.26
  HS02004876HS02004881 CONDUIT     19.94     0  02:22      0.39    0.21    0.07
  HS02004870HS02004876 CONDUIT     15.76     0  02:22      0.27    0.01    0.08
  HS02004842HS02004848 CONDUIT      3.57     0  02:31      0.02    0.00    0.26
  HS02004837HS02004842 CONDUIT      4.47     0  00:03      0.41    0.00    0.28
  HS02004830HS02004837 CONDUIT     17.17     0  02:20      0.38    0.02    0.06
  HS02004824HS02004830 CONDUIT     17.32     0  02:21      0.43    0.02    0.06
  HS02004817HS02004824 CONDUIT     25.62     0  02:23      0.17    0.01    0.37
  HS02004770HS02004777 CONDUIT     30.85     0  02:18      0.16    0.06    0.28
  HS02004799HS02004480 CONDUIT     76.73     0  02:20      0.45    0.10    0.24
  HS02004792HS02004799 CONDUIT     70.18     0  02:20      0.52    0.04    0.19
  HS02004788HS02004792 CONDUIT     40.92     0  02:21      0.69    0.03    0.09
  HS02004785HS02004788 CONDUIT     30.32     0  02:21      0.40    0.23    0.11
  HS02004777HS02004785 CONDUIT     30.28     0  02:20      0.20    0.04    0.22
  HS02004480HS02004478 CONDUIT     90.46     0  02:21      0.77    0.38    0.17
  HS02004479HS02004480 CONDUIT     14.06     0  02:23      0.15    0.01    0.24
  HS02004862HS02004870 CONDUIT     11.32     0  02:22      0.37    0.01    0.04
  HS02004848HS02004852 CONDUIT      4.19     0  02:21      0.24    0.00    0.03
  HS02004856HS02004862 CONDUIT      7.45     0  02:22      0.27    0.01    0.04
  HS02004852HS02004856 CONDUIT      4.16     0  02:23      0.08    0.00    0.08
  HS02004802HS02004478 CONDUIT     34.58     0  02:25      0.23    0.03    0.21
  HS02004478WS02006287 CONDUIT    124.63     0  02:22      1.05    0.03    0.13
  HS02004817HS02004807 CONDUIT     26.43     0  02:26      0.08    0.02    0.47
  HS02004807HS02004802 CONDUIT     34.42     0  02:24      0.19    0.07    0.25
  YS02001759YS02001757 CONDUIT    111.42     0  02:59      0.15    0.08    0.89
  YS02001762YS02001759 CONDUIT     81.24     0  03:33      0.17    0.09    0.82
  YS02001765YS02001762 CONDUIT     60.62     0  03:18      0.22    0.06    0.78
  YS02001770YS02001767 CONDUIT     60.00     0  02:58      0.31    0.24    0.71
  YS02001774YS02001770 CONDUIT     28.90     0  02:30      0.12    0.02    0.73
  YS02001779YS02001774 CONDUIT     13.07     0  02:29      0.07    0.01    0.65
  YS02001649YS02001757 CONDUIT    166.57     0  03:21      0.23    0.10    0.88
  YS02001767YS02001765 CONDUIT     83.39     0  03:27      0.26    0.10    0.73
  YS02006561YS02001783 CONDUIT    174.02     0  02:57      1.53    0.09    0.28
  YS02001783YS02001784 CONDUIT    174.02     0  02:57      1.02    0.24    0.37
  YS02001784YS02001785 CONDUIT    175.06     0  02:57      1.06    0.41    0.36
  YS02001788YS02001790 CONDUIT    175.17     0  02:58      1.61    0.13    0.27
  YS02001790YS02001791 CONDUIT    175.33     0  02:58      1.84    0.19    0.25
  YS02001791YS02001793 CONDUIT    175.33     0  02:58      3.30    0.08    0.16
  YS02001910YS02001907 CONDUIT     53.75     0  03:01      0.49    0.03    0.62
  YS02001786YS02001788 CONDUIT    175.11     0  02:57      1.46    0.34    0.29
  YS02001915YS02001910 CONDUIT     53.70     0  03:01      0.44    0.03    0.41
  YS02001918YS02001915 CONDUIT     18.66     0  03:04      0.44    0.01    0.19
  YS02001923YS02001920 CONDUIT     15.81     0  03:02      0.32    0.01    0.11
  YS02001926YS02001923 CONDUIT     15.78     0  03:02      0.38    0.02    0.10
  YS02001929YS02001926 CONDUIT     15.76     0  03:01      0.40    0.01    0.10
  YS02001920YS02001918 CONDUIT     18.67     0  03:03      0.36    0.02    0.12
  YS02001629YS02163301 CONDUIT     40.06     0  03:13      0.09    0.05    0.67
  YS02001619YS02001622 CONDUIT     35.57     0  03:03      0.56    0.05    0.29
  YS02001622YS02001625 CONDUIT     36.81     0  02:47      0.18    0.02    0.45
  YS02001625YS02001629 CONDUIT     38.58     0  02:39      0.18    0.02    0.44
  YS02163301YS02001633 CONDUIT     42.34     0  02:38      0.09    0.04    0.72
  YS02163601YS02164001 CONDUIT     76.13     0  03:13      0.12    0.07    0.78
  YS02164001YS02001641 CONDUIT     77.17     0  03:13      0.12    0.11    0.76
  YS02001641YS02001644 CONDUIT     73.99     0  03:10      0.13    0.24    0.77
  YS02001647YS02001649 CONDUIT    114.70     0  03:10      0.20    0.06    0.70
  YS02006553YS02006556 CONDUIT    118.80     0  03:02      0.20    0.10    0.71
  YS02006556YS02006558 CONDUIT    118.91     0  03:02      0.19    0.09    0.74
  YSB6556YSB1171       CONDUIT      7.55     0  02:24      0.04    0.01    0.51
  YS02001907YS02006553 CONDUIT    118.63     0  03:02      0.16    0.14    0.81
  YS02006558YS02006561 CONDUIT    174.03     0  02:57      1.97    0.38    0.35
  YS02001633YS02163601 CONDUIT     75.68     0  03:13      0.13    0.08    0.77
  YS02001644YS02001647 CONDUIT    111.74     0  03:06      0.20    0.07    0.68
  YS02001745YS02001748 CONDUIT     38.61     0  03:01      1.20    0.01    0.09
  YS02001748YS02001751 CONDUIT     48.24     0  03:30      0.95    0.02    0.22
  YS02001751YS02001754 CONDUIT    100.86     0  03:44      0.88    0.05    0.44
  YS02001754YS02001757 CONDUIT    148.29     0  03:50      0.33    0.06    0.77
  YS02001882YS02001884 CONDUIT      2.38     0  02:12      0.06    0.00    0.35
  YS02001884YS02001887 CONDUIT      7.38     0  02:07      0.05    0.01    0.44
  YS02001890YS02001895 CONDUIT     65.90     0  02:49      0.22    0.03    0.41
  YS02001895YS02001898 CONDUIT     65.83     0  02:50      0.44    0.11    0.28
  YS02001898YS02001901 CONDUIT     65.87     0  02:50      0.26    0.04    0.36
  YS02001901YS02001904 CONDUIT     65.57     0  02:51      0.22    0.10    0.41
  YS02001904YS02001907 CONDUIT     65.69     0  02:53      0.14    0.02    0.57
  YS02001887YS02001890 CONDUIT     66.10     0  02:47      0.17    0.11    0.50
  YS02001652YS02001649 CONDUIT     68.14     0  03:35      0.29    0.03    0.71
  YS02001655YS02001652 CONDUIT     58.61     0  03:14      0.94    0.03    0.46
  YS02001658YS02001655 CONDUIT     46.71     0  02:47      1.09    0.02    0.22
  YS02001661YS02001658 CONDUIT     46.71     0  02:47      1.22    0.02    0.10
  YS02001664YS02001661 CONDUIT     46.71     0  02:46      0.83    0.01    0.12
  YSB1154YSB6556       CONDUIT      7.51     0  02:20      0.19    0.01    0.40
  YSB1174YSB1171       CONDUIT      7.18     0  02:14      0.04    0.01    0.52
  YSB1171HS02004479    CONDUIT     13.94     0  02:23      0.54    0.01    0.39
  HS02004881HS02006253 CONDUIT     22.40     0  02:21      1.34    0.00    0.08
  YS02001793JiankangQianchi CONDUIT    175.33     0  02:58     11.05    0.01    0.50
  YS02001757CaochengTiaoxuchi CONDUIT    285.10     0  03:05      0.74    0.13    0.51
  WSF200WS02003060     CONDUIT    392.87     0  03:02      1.55    0.09    0.28
  1                    CONDUIT    607.92     0  03:07      2.90    0.21    0.31
  2                    CONDUIT      0.00     0  00:00      0.00    0.00    0.00
  3                    CONDUIT    250.55     0  00:00      8.26    0.40    0.46
  4                    CONDUIT      0.00     0  00:00      0.00    0.00    0.00
  CC-Pump-1            PUMP       200.00     0  02:40              1.00
  CC-Pump-2            PUMP         0.00     0  00:00              0.00
  JK-Pump-1            PUMP       300.00     0  00:00              1.00
  JK-Pump-2            PUMP         1.36     0  00:16              0.00
  XR-Pump-1            PUMP        95.00     0  00:00              1.00
  XR-Pump-2            PUMP        95.00     0  01:40              1.00
  XR-Pump-3            PUMP        95.00     0  00:20              1.00
  XR-Pump-4            PUMP        95.00     0  01:40              1.00
  
  
  ***************************
  Flow Classification Summary
  ***************************
  
  -------------------------------------------------------------------------------------
                      Adjusted    ---------- Fraction of Time in Flow Class ---------- 
                       /Actual         Up    Down  Sub   Sup   Up    Down  Norm  Inlet 
  Conduit               Length    Dry  Dry   Dry   Crit  Crit  Crit  Crit  Ltd   Ctrl  
  -------------------------------------------------------------------------------------
  WS02003066WSF200        1.00   0.07  0.00  0.00  0.00  0.93  0.00  0.00  0.77  0.00
  WS02006287WS02006284    1.00   0.05  0.02  0.00  0.74  0.20  0.00  0.00  0.81  0.00
  WS02006284WS02006280    1.00   0.05  0.00  0.00  0.00  0.00  0.00  0.95  0.00  0.00
  WS02006280WS02006229    1.00   0.05  0.00  0.00  0.00  0.00  0.00  0.95  0.00  0.00
  WS02006229WS02006228    1.00   0.00  0.00  0.00  0.98  0.00  0.00  0.02  0.00  0.00
  WS02006256WS02006235    1.00   0.00  0.00  0.00  1.00  0.00  0.00  0.00  0.00  0.00
  WS02006253WS02006251    1.00   0.04  0.01  0.00  0.95  0.00  0.00  0.00  0.00  0.00
  WS02006252WS02006251    1.00   0.10  0.00  0.00  0.00  0.00  0.90  0.00  0.00  0.00
  WS02006251WS02006249    1.00   0.00  0.00  0.00  1.00  0.00  0.00  0.00  0.30  0.00
  WS02006249WS02006248    1.00   0.00  0.02  0.00  0.89  0.00  0.08  0.00  0.00  0.00
  WS02006248WS02006247    1.00   0.03  0.00  0.00  0.97  0.00  0.00  0.00  0.19  0.00
  WS02006247WS02006245    1.00   0.02  0.00  0.00  0.98  0.00  0.00  0.00  0.00  0.00
  WS02006245WS02006243    1.00   0.02  0.00  0.00  0.93  0.00  0.00  0.05  0.01  0.00
  WS02006243WS02006242    1.00   0.01  0.00  0.00  0.99  0.00  0.00  0.00  0.30  0.00
  WS02006242WS02006240    1.00   0.00  0.00  0.00  1.00  0.00  0.00  0.00  0.00  0.00
  WS02006240WS02006239    1.00   0.00  0.00  0.00  0.94  0.00  0.00  0.05  0.01  0.00
  WS02006239WS02006238    1.00   0.00  0.00  0.00  1.00  0.00  0.00  0.00  0.01  0.00
  WS02006238WS02006235    1.00   0.00  0.00  0.00  1.00  0.00  0.00  0.00  0.00  0.00
  WS02006235WS02006234    1.00   0.00  0.00  0.00  0.94  0.00  0.06  0.00  0.00  0.00
  WS02006234WS02006232    1.00   0.00  0.00  0.00  1.00  0.00  0.00  0.00  0.17  0.00
  WS02006232WS02006231    1.00   0.00  0.00  0.00  0.99  0.00  0.01  0.00  0.00  0.00
  WS02006231WS02006230    1.00   0.00  0.00  0.00  0.22  0.00  0.77  0.00  0.00  0.00
  WS02006230WS02006229    1.00   0.00  0.00  0.00  0.98  0.00  0.00  0.02  0.01  0.00
  WS02006228WS02006109    1.00   0.00  0.00  0.00  1.00  0.00  0.00  0.00  0.00  0.00
  WS02006116WS02004401    1.00   0.03  0.00  0.00  0.97  0.00  0.00  0.00  0.00  0.00
  WS02006115WS02006116    1.00   0.03  0.00  0.00  0.96  0.00  0.00  0.01  0.00  0.00
  WS02006113WS02006111    1.00   0.02  0.00  0.00  0.00  0.97  0.00  0.00  0.13  0.00
  WS02006112WS02006115    1.00   0.03  0.00  0.00  0.97  0.00  0.00  0.00  0.00  0.00
  WS02006111WS02006112    1.00   0.03  0.00  0.00  0.97  0.00  0.00  0.00  0.98  0.00
  WS02006110WS02006113    1.00   0.01  0.01  0.00  0.98  0.00  0.00  0.00  0.00  0.00
  WS02006109WS02006110    1.00   0.00  0.01  0.00  0.98  0.00  0.01  0.00  0.00  0.00
  WS02004411WS02004412    1.00   0.05  0.00  0.00  0.95  0.00  0.00  0.00  0.00  0.00
  WS02004401WS02004402    1.00   0.03  0.00  0.00  0.97  0.00  0.00  0.00  0.00  0.00
  WS02004413WS02003067    1.00   0.05  0.02  0.00  0.00  0.00  0.94  0.00  0.00  0.00
  WS02004412WS02004413    1.00   0.05  0.00  0.00  0.95  0.00  0.00  0.00  0.03  0.00
  WS02004410WS02004411    1.00   0.05  0.00  0.00  0.95  0.00  0.00  0.00  0.04  0.00
  WS02004409WS02004410    1.00   0.05  0.00  0.00  0.95  0.00  0.00  0.00  0.04  0.00
  WS02004407WS02004409    1.00   0.05  0.00  0.00  0.95  0.00  0.00  0.00  0.89  0.00
  WS02004406WS02004407    1.00   0.00  0.04  0.00  0.95  0.00  0.00  0.00  0.00  0.00
  WS02004405WS02004406    1.00   0.00  0.00  0.00  1.00  0.00  0.00  0.00  0.00  0.00
  WS02004404WS02004405    1.00   0.00  0.00  0.00  1.00  0.00  0.00  0.00  0.00  0.00
  WS02004403WS02004404    1.00   0.00  0.03  0.00  0.97  0.00  0.00  0.00  0.01  0.00
  WS02004402WS02004403    1.00   0.03  0.00  0.00  0.97  0.00  0.00  0.00  0.00  0.00
  WS02004139WS02001211    1.00   0.00  0.00  0.00  0.99  0.00  0.01  0.00  0.00  0.00
  WS02004138WS02004139    1.00   0.00  0.00  0.00  0.99  0.01  0.00  0.00  1.00  0.00
  WS02003067WS02003066    1.00   0.06  0.01  0.00  0.93  0.00  0.00  0.00  0.00  0.00
  WS02001213WS02003059    1.00   0.00  0.01  0.00  0.99  0.00  0.00  0.00  0.00  0.00
  WS02001212WS02001213    1.00   0.01  0.00  0.00  0.64  0.00  0.35  0.00  0.00  0.00
  WS02001211WS02001212    1.00   0.00  0.01  0.00  0.99  0.00  0.00  0.00  0.00  0.00
  WS02003072WS02003073    1.00   0.00  0.00  0.00  0.00  0.00  0.00  1.00  0.00  0.00
  WS02003069WS02003072    1.00   0.00  0.00  0.00  0.99  0.01  0.00  0.00  0.42  0.00
  WS02003060WS02003069    1.00   0.00  0.00  0.00  0.99  0.01  0.00  0.00  0.24  0.00
  WS02003059WS02003060    1.00   0.00  0.00  0.00  0.99  0.01  0.00  0.00  0.02  0.00
  HS02004901HS02004770    1.00   0.05  0.00  0.00  0.95  0.00  0.00  0.00  0.03  0.00
  HS02004876HS02004881    1.00   0.03  0.00  0.00  0.97  0.00  0.00  0.00  0.00  0.00
  HS02004870HS02004876    1.00   0.01  0.00  0.00  0.99  0.00  0.00  0.00  0.95  0.00
  HS02004842HS02004848    1.00   0.00  0.05  0.00  0.95  0.00  0.00  0.00  0.71  0.00
  HS02004837HS02004842    1.00   0.00  0.00  0.00  0.99  0.01  0.00  0.00  0.11  0.00
  HS02004830HS02004837    1.00   0.00  0.00  0.00  1.00  0.00  0.00  0.00  0.99  0.00
  HS02004824HS02004830    1.00   0.00  0.00  0.00  1.00  0.00  0.00  0.00  0.00  0.00
  HS02004817HS02004824    1.00   0.00  0.00  0.00  1.00  0.00  0.00  0.00  1.00  0.00
  HS02004770HS02004777    1.00   0.00  0.05  0.00  0.95  0.00  0.00  0.00  0.08  0.00
  HS02004799HS02004480    1.00   0.00  0.03  0.00  0.93  0.00  0.04  0.00  0.00  0.00
  HS02004792HS02004799    1.00   0.00  0.00  0.00  0.98  0.02  0.00  0.00  0.98  0.00
  HS02004788HS02004792    1.00   0.00  0.00  0.00  0.99  0.01  0.00  0.00  0.98  0.00
  HS02004785HS02004788    1.00   0.00  0.00  0.00  1.00  0.00  0.00  0.00  0.00  0.00
  HS02004777HS02004785    1.00   0.00  0.00  0.00  1.00  0.00  0.00  0.00  0.22  0.00
  HS02004480HS02004478    1.00   0.06  0.00  0.00  0.76  0.00  0.00  0.18  0.00  0.00
  HS02004479HS02004480    1.00   0.03  0.00  0.00  0.97  0.00  0.00  0.00  0.16  0.00
  HS02004862HS02004870    1.00   0.00  0.00  0.00  1.00  0.00  0.00  0.00  0.05  0.00
  HS02004848HS02004852    1.00   0.05  0.00  0.00  0.95  0.00  0.00  0.00  0.70  0.00
  HS02004856HS02004862    1.00   0.00  0.08  0.00  0.92  0.00  0.00  0.00  0.73  0.00
  HS02004852HS02004856    1.00   0.05  0.01  0.00  0.94  0.00  0.00  0.00  0.82  0.00
  HS02004802HS02004478    1.00   0.05  0.01  0.00  0.94  0.00  0.00  0.00  0.00  0.00
  HS02004478WS02006287    1.00   0.06  0.00  0.00  0.94  0.00  0.00  0.00  0.81  0.00
  HS02004817HS02004807    1.00   0.00  0.05  0.00  0.95  0.00  0.00  0.00  0.00  0.00
  HS02004807HS02004802    1.00   0.05  0.00  0.00  0.94  0.00  0.00  0.00  0.01  0.00
  YS02001759YS02001757    1.00   0.00  0.00  0.00  1.00  0.00  0.00  0.00  0.17  0.00
  YS02001762YS02001759    1.00   0.00  0.00  0.00  1.00  0.00  0.00  0.00  0.05  0.00
  YS02001765YS02001762    1.00   0.00  0.00  0.00  1.00  0.00  0.00  0.00  0.23  0.00
  YS02001770YS02001767    1.00   0.00  0.00  0.00  1.00  0.00  0.00  0.00  0.00  0.00
  YS02001774YS02001770    1.00   0.00  0.06  0.00  0.94  0.00  0.00  0.00  0.07  0.00
  YS02001779YS02001774    1.00   0.00  0.00  0.00  1.00  0.00  0.00  0.00  0.28  0.00
  YS02001649YS02001757    1.00   0.00  0.00  0.00  1.00  0.00  0.00  0.00  0.19  0.00
  YS02001767YS02001765    1.00   0.00  0.00  0.00  1.00  0.00  0.00  0.00  0.01  0.00
  YS02006561YS02001783    1.00   0.08  0.00  0.00  0.00  0.92  0.00  0.00  0.72  0.00
  YS02001783YS02001784    1.00   0.00  0.08  0.00  0.92  0.00  0.00  0.00  0.10  0.00
  YS02001784YS02001785    1.00   0.00  0.00  0.00  1.00  0.00  0.00  0.00  0.26  0.00
  YS02001788YS02001790    1.00   0.00  0.00  0.00  0.09  0.91  0.00  0.00  0.99  0.00
  YS02001790YS02001791    1.00   0.00  0.00  0.00  0.02  0.98  0.00  0.00  0.36  0.00
  YS02001791YS02001793    1.00   0.00  0.00  0.00  0.00  1.00  0.00  0.00  0.00  0.00
  YS02001910YS02001907    1.00   0.00  0.00  0.00  0.97  0.00  0.00  0.03  0.13  0.00
  YS02001786YS02001788    1.00   0.00  0.00  0.00  0.10  0.90  0.00  0.00  0.00  0.00
  YS02001915YS02001910    1.00   0.00  0.00  0.00  0.99  0.01  0.00  0.00  0.25  0.00
  YS02001918YS02001915    1.00   0.00  0.01  0.00  0.98  0.02  0.00  0.00  0.81  0.00
  YS02001923YS02001920    1.00   0.00  0.00  0.00  1.00  0.00  0.00  0.00  1.00  0.00
  YS02001926YS02001923    1.00   0.00  0.04  0.00  0.00  0.00  0.96  0.00  0.00  0.00
  YS02001929YS02001926    1.00   0.00  0.05  0.00  0.95  0.00  0.00  0.00  0.86  0.00
  YS02001920YS02001918    1.00   0.00  0.01  0.00  0.99  0.00  0.00  0.00  0.00  0.00
  YS02001629YS02163301    1.00   0.07  0.00  0.00  0.92  0.00  0.00  0.00  0.00  0.00
  YS02001619YS02001622    1.00   0.05  0.00  0.00  0.95  0.00  0.00  0.00  0.00  0.00
  YS02001622YS02001625    1.00   0.05  0.00  0.00  0.95  0.00  0.00  0.00  0.14  0.00
  YS02001625YS02001629    1.00   0.05  0.03  0.00  0.90  0.00  0.02  0.00  0.00  0.00
  YS02163301YS02001633    1.00   0.00  0.07  0.00  0.93  0.00  0.00  0.00  0.00  0.00
  YS02163601YS02164001    1.00   0.00  0.04  0.00  0.96  0.00  0.00  0.00  0.00  0.00
  YS02164001YS02001641    1.00   0.01  0.03  0.00  0.96  0.00  0.00  0.00  0.07  0.00
  YS02001641YS02001644    1.00   0.00  0.01  0.00  0.99  0.00  0.00  0.00  0.00  0.00
  YS02001647YS02001649    1.00   0.00  0.08  0.00  0.92  0.00  0.00  0.00  0.01  0.00
  YS02006553YS02006556    1.00   0.02  0.00  0.00  0.98  0.00  0.00  0.00  0.03  0.00
  YS02006556YS02006558    1.00   0.00  0.00  0.00  1.00  0.00  0.00  0.00  0.00  0.00
  YSB6556YSB1171          1.00   0.03  0.02  0.00  0.95  0.00  0.00  0.00  0.00  0.00
  YS02001907YS02006553    1.00   0.00  0.03  0.00  0.97  0.00  0.00  0.00  0.00  0.00
  YS02006558YS02006561    1.00   0.08  0.00  0.00  0.00  0.92  0.00  0.00  0.71  0.00
  YS02001633YS02163601    1.00   0.00  0.01  0.00  0.99  0.00  0.00  0.00  0.20  0.00
  YS02001644YS02001647    1.00   0.00  0.08  0.00  0.92  0.00  0.00  0.00  0.00  0.00
  YS02001745YS02001748    1.00   0.00  0.00  0.00  0.00  0.00  0.00  1.00  0.00  0.00
  YS02001748YS02001751    1.00   0.00  0.00  0.00  0.97  0.03  0.00  0.00  0.74  0.00
  YS02001751YS02001754    1.00   0.00  0.00  0.00  0.91  0.00  0.00  0.09  0.02  0.00
  YS02001754YS02001757    1.00   0.00  0.00  0.00  0.99  0.01  0.00  0.00  0.27  0.00
  YS02001882YS02001884    1.00   0.07  0.00  0.00  0.93  0.00  0.00  0.00  0.00  0.00
  YS02001884YS02001887    1.00   0.04  0.01  0.00  0.95  0.00  0.00  0.00  0.00  0.00
  YS02001890YS02001895    1.00   0.00  0.07  0.00  0.92  0.00  0.00  0.00  0.00  0.00
  YS02001895YS02001898    1.00   0.08  0.00  0.00  0.92  0.00  0.01  0.00  0.00  0.00
  YS02001898YS02001901    1.00   0.07  0.01  0.00  0.92  0.00  0.00  0.00  0.02  0.00
  YS02001901YS02001904    1.00   0.07  0.00  0.00  0.93  0.00  0.00  0.00  0.00  0.00
  YS02001904YS02001907    1.00   0.00  0.07  0.00  0.93  0.00  0.00  0.00  0.00  0.00
  YS02001887YS02001890    1.00   0.00  0.00  0.00  0.97  0.00  0.03  0.00  0.00  0.00
  YS02001652YS02001649    1.00   0.00  0.00  0.00  1.00  0.00  0.00  0.00  0.27  0.00
  YS02001655YS02001652    1.00   0.00  0.00  0.00  0.91  0.00  0.00  0.09  0.03  0.00
  YS02001658YS02001655    1.00   0.00  0.07  0.00  0.91  0.03  0.00  0.00  0.79  0.00
  YS02001661YS02001658    1.00   0.07  0.00  0.00  0.00  0.93  0.00  0.00  0.72  0.00
  YS02001664YS02001661    1.00   0.05  0.00  0.00  0.95  0.00  0.00  0.00  0.86  0.00
  YSB1154YSB6556          1.00   0.05  0.00  0.00  0.95  0.00  0.00  0.00  0.02  0.00
  YSB1174YSB1171          1.00   0.04  0.01  0.00  0.96  0.00  0.00  0.00  0.00  0.00
  YSB1171HS02004479       1.00   0.03  0.00  0.00  0.96  0.00  0.00  0.00  0.13  0.00
  HS02004881HS02006253    1.00   0.04  0.00  0.00  0.61  0.01  0.00  0.35  0.41  0.00
  YS02001793JiankangQianchi    1.00   0.00  0.00  0.00  0.03  0.97  0.00  0.00  0.02  0.00
  YS02001757CaochengTiaoxuchi    1.00   0.00  0.10  0.00  0.90  0.00  0.00  0.00  0.00  0.00
  WSF200WS02003060        1.00   0.00  0.07  0.00  0.81  0.12  0.00  0.00  0.33  0.00
  1                       1.00   0.00  0.00  0.00  0.00  1.00  0.00  0.00  0.45  0.00
  2                       1.00   1.00  0.00  0.00  0.00  0.00  0.00  0.00  0.00  0.00
  3                       1.00   0.55  0.00  0.00  0.00  0.45  0.00  0.00  0.30  0.00
  4                       1.00   1.00  0.00  0.00  0.00  0.00  0.00  0.00  0.00  0.00
  
  
  *************************
  Conduit Surcharge Summary
  *************************
  
  ----------------------------------------------------------------------------
                                                           Hours        Hours 
                         --------- Hours Full --------   Above Full   Capacity
  Conduit                Both Ends  Upstream  Dnstream   Normal Flow   Limited
  ----------------------------------------------------------------------------
  WS02006229WS02006228        0.01      0.01      0.01      2.58         0.01
  WS02006256WS02006235        5.56      5.56      6.27      2.01         0.01
  WS02006249WS02006248        0.01      0.01      0.01      3.18         0.01
  WS02006247WS02006245        0.01      0.01      0.01      3.30         0.01
  WS02006235WS02006234        0.01      0.01      0.01      5.58         0.01
  WS02006231WS02006230        0.01      0.01      0.01      5.59         0.01
  WS02006230WS02006229        0.66      1.94      0.66      5.70         0.66
  WS02006228WS02006109        0.01      0.40      0.01      3.54         0.01
  WS02006111WS02006112        0.01      0.01      3.21      0.01         0.01
  WS02006110WS02006113        0.01      0.01      0.24      0.01         0.01
  WS02006109WS02006110        0.01      0.01      0.40      0.01         0.01
  WS02004404WS02004405        0.01      0.01      0.01      5.48         0.01
  WS02003072WS02003073        0.01      0.01      0.01      3.43         0.01
  YS02001793JiankangQianchi        0.01      0.01      0.09      0.01         0.01
  
  
  ***************
  Pumping Summary
  ***************
  
  ---------------------------------------------------------------------------------------------------------
                                                  Min       Avg       Max     Total     Power    % Time Off
                        Percent   Number of      Flow      Flow      Flow    Volume     Usage    Pump Curve
  Pump                 Utilized   Start-Ups       LPS       LPS       LPS  10^6 ltr     Kw-hr    Low   High
  ---------------------------------------------------------------------------------------------------------
  CC-Pump-1               68.53           1      0.00    164.17    200.00     2.986     12.36    0.0  100.0
  CC-Pump-2                0.00           0      0.00      0.00      0.00     0.000      0.00    0.0    0.0
  JK-Pump-1              100.00           1      0.00     96.45    300.00     2.035     38.59    0.0    0.0
  JK-Pump-2                4.25           1      0.00      1.30      1.36     0.002      0.03    0.0    0.0
  XR-Pump-1               25.53           2      0.00     76.23     95.00     0.599      6.12    0.0    0.0
  XR-Pump-2               80.84           2      0.00     93.26     95.00     2.080     10.97    0.0    0.0
  XR-Pump-3               23.39           2      0.00     65.19     95.00     0.513      5.19    0.0    0.0
  XR-Pump-4               85.09           3      0.00     92.78     95.00     2.137     11.56    0.0    0.0
  

  Analysis begun on:  Thu Jan  6 01:49:32 2022
  Analysis ended on:  Thu Jan  6 01:49:35 2022
  Total elapsed time: 00:00:03