
  EPA STORM WATER MANAGEMENT MODEL - VERSION 5.1 (Build 5.3.0.dev0)
  --------------------------------------------------------------

  WARNING 04: minimum elevation drop used for Conduit WS02004404WS02004405
  WARNING 03: negative offset ignored for Link YS02001904YS02001907
  
  *********************************************************
  NOTE: The summary statistics displayed in this report are
  based on results found at every computational time step,  
  not just on results from each reporting time step.
  *********************************************************
  
  ****************
  Analysis Options
  ****************
  Flow Units ............... LPS
  Process Models:
    Rainfall/Runoff ........ YES
    RDII ................... NO
    Snowmelt ............... NO
    Groundwater ............ NO
    Flow Routing ........... YES
    Ponding Allowed ........ NO
    Water Quality .......... NO
  Infiltration Method ...... HORTON
  Flow Routing Method ...... DYNWAVE
  Surcharge Method ......... EXTRAN
  Starting Date ............ 08/28/2015 08:00:00
  Ending Date .............. 08/28/2015 15:50:00
  Antecedent Dry Days ...... 8.0
  Report Time Step ......... 00:01:00
  Wet Time Step ............ 00:01:00
  Dry Time Step ............ 00:01:00
  Routing Time Step ........ 5.00 sec
  Variable Time Step ....... YES
  Maximum Trials ........... 8
  Number of Threads ........ 4
  Head Tolerance ........... 0.001500 m
  
  
  **************************        Volume         Depth
  Runoff Quantity Continuity     hectare-m            mm
  **************************     ---------       -------
  Total Precipitation ......         3.517         7.699
  Evaporation Loss .........         0.000         0.000
  Infiltration Loss ........         0.893         1.955
  Surface Runoff ...........         1.682         3.682
  Final Storage ............         0.943         2.064
  Continuity Error (%) .....        -0.018
  
  
  **************************        Volume        Volume
  Flow Routing Continuity        hectare-m      10^6 ltr
  **************************     ---------     ---------
  Dry Weather Inflow .......         0.616         6.165
  Wet Weather Inflow .......         1.681        16.806
  Groundwater Inflow .......         0.000         0.000
  RDII Inflow ..............         0.000         0.000
  External Inflow ..........         0.102         1.024
  External Outflow .........         1.509        15.094
  Flooding Loss ............         0.344         3.444
  Evaporation Loss .........         0.000         0.000
  Exfiltration Loss ........         0.000         0.000
  Initial Stored Volume ....         0.076         0.761
  Final Stored Volume ......         0.626         6.261
  Continuity Error (%) .....        -0.174
  
  
  *************************
  Highest Continuity Errors
  *************************
  Node YS02001774 (39.58%)
  Node HS02004842 (23.63%)
  Node YS02001884 (14.48%)
  Node YSB1171 (5.13%)
  Node HS02004817 (4.11%)
  
  
  ***************************
  Time-Step Critical Elements
  ***************************
  Link WS02006252WS02006251 (79.37%)
  Link 3 (14.97%)
  Link WS02006280WS02006229 (1.84%)
  
  
  ********************************
  Highest Flow Instability Indexes
  ********************************
  Link WS02006113WS02006111 (41)
  Link YS02001779YS02001774 (32)
  Link YS02001774YS02001770 (32)
  Link WS02006111WS02006112 (30)
  Link YS02001765YS02001762 (27)
  
  
  *************************
  Routing Time Step Summary
  *************************
  Minimum Time Step           :     0.38 sec
  Average Time Step           :     0.88 sec
  Maximum Time Step           :     5.00 sec
  Percent in Steady State     :    -0.00
  Average Iterations per Step :     4.32
  Percent Not Converging      :    22.23
  
  
  ***************************
  Subcatchment Runoff Summary
  ***************************
  
  ------------------------------------------------------------------------------------------------------------------------------
                            Total      Total      Total      Total     Imperv       Perv      Total       Total     Peak  Runoff
                           Precip      Runon       Evap      Infil     Runoff     Runoff     Runoff      Runoff   Runoff   Coeff
  Subcatchment                 mm         mm         mm         mm         mm         mm         mm    10^6 ltr      LPS
  ------------------------------------------------------------------------------------------------------------------------------
  sub0                       7.70       0.00       0.00       0.54       5.90       0.00       5.90        0.00     2.28   0.766
  sub1                       7.70       0.00       0.00       0.85       5.60       0.00       5.60        0.04    12.01   0.727
  sub2                       7.70       0.00       0.00       2.85       3.94       0.00       3.94        0.04    10.62   0.512
  sub3                       7.70       0.00       0.00       2.85       3.91       0.00       3.91        0.09    21.84   0.508
  sub4                       7.70       0.00       0.00       0.85       5.45       0.00       5.45        0.11    24.49   0.708
  sub5                       7.70       0.00       0.00       0.54       5.85       0.00       5.85        0.07    21.36   0.760
  sub7                       7.70       0.00       0.00       0.69       5.75       0.00       5.75        0.02     7.53   0.747
  sub8                       7.70       0.00       0.00       0.69       5.74       0.00       5.74        0.04    13.30   0.746
  sub9                       7.70       0.00       0.00       0.69       5.74       0.00       5.74        0.03     9.86   0.746
  sub10                      7.70       0.00       0.00       0.62       5.79       0.00       5.79        0.06    21.33   0.752
  sub11                      7.70       0.00       0.00       0.62       5.81       0.00       5.81        0.07    25.01   0.754
  sub12                      7.70       0.00       0.00       1.00       5.51       0.00       5.51        0.05    21.13   0.716
  sub14                      7.70       0.00       0.00       0.69       5.74       0.00       5.74        0.05    19.27   0.745
  sub15                      7.70       0.00       0.00       2.31       4.41       0.00       4.41        0.08    26.13   0.573
  sub16                      7.70       0.00       0.00       2.54       4.24       0.00       4.24        0.04    18.58   0.551
  sub17                      7.70       0.00       0.00       2.46       4.30       0.00       4.30        0.04    15.03   0.559
  sub22                      7.70       0.00       0.00       3.31       3.60       0.00       3.60        0.23    85.60   0.468
  sub23                      7.70       0.00       0.00       2.85       3.98       0.00       3.98        0.19    72.88   0.517
  sub60                      7.70       0.00       0.00       0.92       4.16       0.00       4.16        1.26   124.62   0.540
  sub61                      7.70       0.00       0.00       1.31       4.36       0.00       4.36        1.34   156.18   0.566
  sub62                      7.70       0.00       0.00       0.62       4.70       0.00       4.70        1.44   159.65   0.610
  sub63                      7.70       0.00       0.00       2.23       3.85       0.00       3.85        1.17   145.76   0.500
  sub64                      7.70       0.00       0.00       1.15       3.98       0.00       3.98        1.21   118.39   0.517
  sub65                      7.70       0.00       0.00       1.00       4.03       0.00       4.03        1.24   120.16   0.524
  sub66                      7.70       0.00       0.00       2.23       3.45       0.00       3.45        1.06   108.45   0.448
  sub67                      7.70       0.00       0.00       0.62       5.08       0.00       5.08        1.57   204.88   0.660
  sub68                      7.70       0.00       0.00       1.08       4.61       0.00       4.61        1.42   172.66   0.599
  sub69                      7.70       0.00       0.00       1.15       4.90       0.00       4.90        1.14   171.52   0.636
  sub70                      7.70       5.00       0.00       4.32       6.24       0.00       6.24        1.43   142.17   0.491
  sub71                      7.70       0.00       0.00       0.62       4.52       0.00       4.52        1.07   111.46   0.588
  sub72                      7.70       0.00       0.00       0.54       3.34       0.00       3.34        0.68    53.99   0.434
  sub73                      7.70       6.07       0.00       4.68       6.53       0.00       6.53        1.53   124.36   0.474
  sub74                      7.70       0.00       0.00       5.77       1.47       0.00       1.47        0.59    95.72   0.191
  
  
  ******************
  Node Depth Summary
  ******************
  
  ---------------------------------------------------------------------------------
                                 Average  Maximum  Maximum  Time of Max    Reported
                                   Depth    Depth      HGL   Occurrence   Max Depth
  Node                 Type       Meters   Meters   Meters  days hr:min      Meters
  ---------------------------------------------------------------------------------
  WS02001211           JUNCTION     0.61     0.64     5.47     0  02:34        0.64
  WS02001212           JUNCTION     0.35     0.37     5.44     0  02:34        0.37
  WS02001213           JUNCTION     0.58     0.63     5.40     0  02:32        0.63
  WS02003069           JUNCTION     0.41     0.49     5.07     0  02:32        0.49
  WS02003072           JUNCTION     0.48     0.55     4.92     0  02:32        0.55
  WS02003073           JUNCTION     0.29     0.33     4.40     0  02:33        0.33
  WS02003060           JUNCTION     0.37     0.43     5.36     0  02:31        0.43
  WS02003066           JUNCTION     0.23     0.28     5.84     0  02:29        0.28
  WS02003059           JUNCTION     0.64     0.70     5.39     0  02:32        0.70
  WS02003067           JUNCTION     0.57     0.68     6.00     0  02:29        0.68
  WS02004401           JUNCTION     0.67     0.81     6.81     0  02:25        0.81
  WS02004402           JUNCTION     0.70     0.84     6.80     0  02:25        0.84
  WS02004403           JUNCTION     0.72     0.86     6.79     0  02:25        0.86
  WS02004404           JUNCTION     0.79     0.93     6.78     0  02:25        0.93
  WS02004406           JUNCTION     0.80     0.93     6.76     0  02:25        0.93
  WS02004409           JUNCTION     0.49     0.63     6.40     0  02:28        0.63
  WS02004410           JUNCTION     0.51     0.65     6.37     0  02:28        0.65
  WS02004411           JUNCTION     0.52     0.66     6.34     0  02:28        0.66
  WS02004412           JUNCTION     0.54     0.67     6.31     0  02:28        0.67
  WS02004413           JUNCTION     0.70     0.83     6.30     0  02:29        0.83
  WS02004405           JUNCTION     0.79     0.92     6.77     0  02:25        0.92
  WS02006109           JUNCTION     0.74     0.91     7.53     0  02:21        0.91
  WS02006110           JUNCTION     0.74     0.88     7.47     0  02:21        0.88
  WS02006111           JUNCTION     0.22     0.27     6.98     0  02:21        0.27
  WS02006112           JUNCTION     0.83     1.00     6.88     0  02:24        1.00
  WS02006113           JUNCTION     0.33     0.43     7.32     0  02:21        0.43
  WS02006115           JUNCTION     0.56     0.71     6.85     0  02:25        0.71
  WS02006116           JUNCTION     0.64     0.79     6.83     0  02:25        0.79
  WS02006230           JUNCTION     0.70     0.89     7.64     0  02:21        0.89
  WS02006231           JUNCTION     0.46     0.56     7.69     0  03:02        0.56
  WS02006232           JUNCTION     0.60     0.70     7.74     0  03:03        0.70
  WS02006234           JUNCTION     0.51     0.62     7.77     0  03:03        0.62
  WS02006235           JUNCTION     0.54     0.64     7.81     0  03:04        0.64
  WS02006238           JUNCTION     0.56     0.67     7.81     0  03:04        0.67
  WS02006240           JUNCTION     0.45     0.56     7.85     0  03:04        0.56
  WS02006242           JUNCTION     0.50     0.61     7.88     0  03:04        0.61
  WS02006243           JUNCTION     0.38     0.48     7.90     0  03:04        0.48
  WS02006245           JUNCTION     0.36     0.45     7.94     0  03:04        0.45
  WS02006247           JUNCTION     0.38     0.47     7.97     0  03:04        0.47
  WS02006248           JUNCTION     0.32     0.41     7.99     0  03:03        0.41
  WS02006249           JUNCTION     0.36     0.44     8.04     0  03:03        0.44
  WS02006239           JUNCTION     0.51     0.62     7.83     0  03:04        0.62
  WS02006251           JUNCTION     0.35     0.42     8.09     0  03:02        0.42
  WS02006252           JUNCTION     0.29     0.35     8.59     0  02:50        0.35
  WS02006253           JUNCTION     0.38     0.45     8.09     0  03:02        0.45
  WS02006256           JUNCTION     1.02     1.15     8.09     0  00:00        1.12
  WS02004138           JUNCTION     0.14     0.14     7.39     0  00:20        0.14
  WS02004407           JUNCTION     0.22     0.28     6.59     0  02:26        0.28
  WS02006228           JUNCTION     0.73     0.94     7.59     0  02:21        0.94
  WS02006229           JUNCTION     0.71     0.93     7.62     0  02:21        0.93
  WS02006280           JUNCTION     0.06     0.18     8.45     0  02:14        0.18
  WS02006284           JUNCTION     0.35     0.53     8.93     0  02:14        0.53
  WS02006287           JUNCTION     0.08     0.27     9.22     0  02:13        0.27
  WSF200               JUNCTION     0.22     0.29     5.52     0  02:29        0.29
  HS02004901           JUNCTION     0.11     0.28    10.10     0  02:11        0.28
  HS02004881           JUNCTION     0.01     0.03     9.06     0  02:14        0.03
  HS02004876           JUNCTION     0.04     0.11     9.14     0  02:08        0.11
  HS02004870           JUNCTION     0.01     0.06     9.34     0  02:14        0.06
  HS02004862           JUNCTION     0.01     0.06     9.45     0  02:15        0.06
  HS02004856           JUNCTION     0.07     0.12     9.54     0  02:14        0.12
  HS02004852           JUNCTION     0.01     0.04     9.55     0  02:15        0.04
  HS02004848           JUNCTION     0.01     0.04     9.64     0  02:14        0.04
  HS02004842           JUNCTION     0.33     0.37     9.64     0  02:14        0.37
  HS02004837           JUNCTION     0.03     0.06     9.64     0  02:14        0.06
  HS02004830           JUNCTION     0.04     0.07     9.54     0  02:14        0.07
  HS02004824           JUNCTION     0.02     0.05     9.45     0  02:17        0.05
  HS02004817           JUNCTION     0.43     0.57     9.42     0  02:14        0.57
  HS02004807           JUNCTION     0.12     0.25     9.42     0  02:14        0.25
  HS02004802           JUNCTION     0.15     0.28     9.41     0  02:14        0.28
  HS02004799           JUNCTION     0.10     0.32     9.53     0  02:12        0.32
  HS02004792           JUNCTION     0.03     0.13     9.66     0  02:12        0.13
  HS02004788           JUNCTION     0.02     0.10    10.00     0  02:12        0.10
  HS02004785           JUNCTION     0.04     0.17    10.07     0  02:12        0.17
  HS02004777           JUNCTION     0.14     0.29    10.09     0  02:12        0.29
  HS02004770           JUNCTION     0.10     0.27    10.10     0  02:11        0.27
  HS02004480           JUNCTION     0.07     0.26     9.50     0  02:13        0.26
  HS02004479           JUNCTION     0.10     0.29     9.50     0  02:13        0.29
  HS02004478           JUNCTION     0.05     0.17     9.40     0  02:14        0.17
  YS02001745           JUNCTION     0.63     0.85     8.37     0  04:13        0.84
  YS02001748           JUNCTION     1.03     1.30     8.38     0  04:08        1.28
  YS02001751           JUNCTION     1.21     1.88     8.76     0  03:00        1.48
  YS02001754           JUNCTION     1.46     1.90     8.51     0  03:00        1.76
  YS02001762           JUNCTION     1.66     2.01     8.41     0  04:08        1.98
  YS02001765           JUNCTION     1.61     1.96     8.41     0  04:08        1.93
  YS02001767           JUNCTION     1.57     1.91     8.40     0  04:08        1.89
  YS02001770           JUNCTION     1.57     1.90     8.39     0  04:08        1.88
  YS02001774           JUNCTION     1.64     1.96     8.38     0  04:05        1.95
  YS02001779           JUNCTION     1.39     1.68     8.37     0  03:56        1.68
  YS02001882           JUNCTION     0.33     0.60     7.31     0  02:41        0.60
  YS02001884           JUNCTION     0.43     0.69     7.31     0  02:49        0.69
  YS02001759           JUNCTION     1.69     2.05     8.41     0  04:08        2.01
  YS02001887           JUNCTION     0.50     0.77     7.31     0  02:51        0.77
  YS02001890           JUNCTION     0.53     0.80     7.31     0  02:40        0.80
  YS02001898           JUNCTION     0.30     0.56     7.29     0  02:40        0.56
  YS02001901           JUNCTION     0.42     0.68     7.29     0  02:48        0.68
  YS02001904           JUNCTION     0.40     0.66     7.29     0  02:49        0.66
  YS02001907           JUNCTION     0.73     1.01     7.30     0  02:50        1.00
  YS02001910           JUNCTION     0.52     0.79     7.29     0  02:44        0.78
  YS02001915           JUNCTION     0.32     0.57     7.29     0  02:45        0.57
  YS02001918           JUNCTION     0.10     0.22     7.29     0  02:46        0.22
  YS02001619           JUNCTION     1.17     1.61     8.54     0  03:20        1.46
  YS02001629           JUNCTION     1.52     1.85     8.40     0  03:22        1.83
  YS02001641           JUNCTION     1.63     1.94     8.38     0  03:58        1.92
  YS02001644           JUNCTION     1.63     1.92     8.35     0  03:51        1.92
  YS02001652           JUNCTION     1.47     2.04     8.63     0  02:56        1.80
  YS02001655           JUNCTION     1.24     2.14     8.99     0  02:57        2.02
  YS02001920           JUNCTION     0.20     0.29     7.30     0  02:46        0.29
  YS02001923           JUNCTION     0.08     0.11     7.37     0  03:01        0.11
  YS02001926           JUNCTION     0.16     0.21     7.66     0  03:01        0.21
  YS02001929           JUNCTION     0.08     0.11     7.80     0  03:01        0.11
  YS02001658           JUNCTION     0.97     2.10     9.24     0  03:16        1.76
  YS02001661           JUNCTION     0.74     1.31     8.71     0  04:08        1.06
  YS02001664           JUNCTION     0.31     0.56     8.49     0  04:07        0.53
  YS02001622           JUNCTION     1.19     1.60     8.50     0  03:20        1.49
  YS02001633           JUNCTION     1.61     1.94     8.40     0  03:58        1.92
  YS02001649           JUNCTION     1.67     2.05     8.44     0  04:08        1.99
  YS02001757           JUNCTION     1.79     2.16     8.42     0  04:08        2.11
  YS02001895           JUNCTION     0.30     0.55     7.30     0  02:50        0.55
  YS02001625           JUNCTION     1.47     1.78     8.38     0  03:20        1.78
  YS02163301           JUNCTION     1.55     1.88     8.40     0  04:00        1.86
  YS02163601           JUNCTION     1.67     1.99     8.39     0  03:58        1.97
  YS02164001           JUNCTION     1.61     1.92     8.38     0  03:58        1.90
  YS02001647           JUNCTION     1.46     1.80     8.41     0  04:08        1.76
  YSB1154              JUNCTION     0.24     0.44     9.50     0  02:13        0.44
  YSB6556              JUNCTION     0.14     0.33     9.50     0  02:12        0.33
  YSB1174              JUNCTION     0.19     0.39     9.50     0  02:13        0.39
  YSB1171              JUNCTION     0.39     0.60     9.50     0  02:13        0.60
  YS02006553           JUNCTION     0.73     1.02     7.31     0  02:49        1.00
  YS02006561           JUNCTION     0.17     0.32     6.98     0  02:47        0.31
  YS02006556           JUNCTION     0.71     0.98     7.29     0  02:51        0.98
  YS02006558           JUNCTION     0.75     1.03     7.29     0  02:49        1.01
  YS02001783           JUNCTION     0.33     0.87     7.02     0  02:52        0.79
  YS02001784           JUNCTION     0.36     0.89     6.96     0  02:52        0.82
  YS02001786           JUNCTION     0.33     0.85     6.88     0  02:52        0.80
  YS02001788           JUNCTION     0.29     0.83     6.80     0  02:52        0.80
  YS02001790           JUNCTION     0.40     1.26     6.90     0  02:48        1.07
  YS02001791           JUNCTION     0.39     1.50     6.97     0  02:47        1.18
  YS02001793           JUNCTION     0.56     2.44     7.28     0  02:44        1.79
  WS02004139           JUNCTION     0.55     0.57     5.48     0  02:35        0.57
  WSC                  OUTFALL      0.28     0.33     1.00     0  02:33        0.33
  3                    OUTFALL      0.07     0.13     6.13     0  00:00        0.12
  4                    OUTFALL      0.00     0.00     7.00     0  00:00        0.00
  5                    OUTFALL      0.00     0.00     5.00     0  00:00        0.00
  JK-storage           STORAGE      2.18     5.80     6.60     0  02:50        5.80
  CC-storage           STORAGE      1.04     1.35     8.35     0  04:17        1.35
  XR-storage           STORAGE      7.57     7.72     5.72     0  02:19        7.72
  
  
  *******************
  Node Inflow Summary
  *******************
  
  -------------------------------------------------------------------------------------------------
                                  Maximum  Maximum                  Lateral       Total        Flow
                                  Lateral    Total  Time of Max      Inflow      Inflow     Balance
                                   Inflow   Inflow   Occurrence      Volume      Volume       Error
  Node                 Type           LPS      LPS  days hr:min    10^6 ltr    10^6 ltr     Percent
  -------------------------------------------------------------------------------------------------
  WS02001211           JUNCTION      7.35   198.40     0  02:45       0.207        5.45       0.592
  WS02001212           JUNCTION      0.00   199.27     0  02:45           0        5.42       0.295
  WS02001213           JUNCTION      0.00   200.02     0  02:44           0        5.41       0.385
  WS02003069           JUNCTION      0.32   692.36     0  02:31     0.00902        12.8       0.208
  WS02003072           JUNCTION      0.00   692.31     0  02:32           0        12.8       0.259
  WS02003073           JUNCTION      1.82   694.13     0  02:33      0.0514        12.8       0.288
  WS02003060           JUNCTION     16.53   692.03     0  02:31       0.466        12.9       0.198
  WS02003066           JUNCTION      0.00   484.25     0  02:29           0        7.04       0.062
  WS02003059           JUNCTION      0.00   201.49     0  02:44           0        5.39       0.691
  WS02003067           JUNCTION      0.00   484.21     0  02:29           0        7.05       0.131
  WS02004401           JUNCTION      0.00   489.51     0  02:24           0        7.28       0.291
  WS02004402           JUNCTION      0.00   488.85     0  02:24           0        7.26       0.275
  WS02004403           JUNCTION      0.00   488.51     0  02:25           0        7.24       0.250
  WS02004404           JUNCTION      0.16   488.56     0  02:25     0.00457        7.22       0.189
  WS02004406           JUNCTION      0.00   488.54     0  02:25           0        7.19       0.461
  WS02004409           JUNCTION      0.00   488.46     0  02:26           0        7.15       0.223
  WS02004410           JUNCTION      0.00   486.71     0  02:26           0        7.14       0.252
  WS02004411           JUNCTION      0.00   485.46     0  02:27           0        7.12       0.259
  WS02004412           JUNCTION      0.00   484.73     0  02:28           0         7.1       0.281
  WS02004413           JUNCTION      0.00   484.32     0  02:28           0        7.08       0.417
  WS02004405           JUNCTION      0.04   488.56     0  02:25     0.00107        7.21       0.282
  WS02006109           JUNCTION      1.23   484.91     0  02:21      0.0347        7.36       0.293
  WS02006110           JUNCTION      0.00   484.91     0  02:21           0        7.34       0.266
  WS02006111           JUNCTION      0.00   500.45     0  02:21           0        7.31       0.060
  WS02006112           JUNCTION     15.03   496.97     0  02:21      0.0369        7.35       0.392
  WS02006113           JUNCTION      0.00   484.95     0  02:21           0        7.32       0.128
  WS02006115           JUNCTION      0.00   493.04     0  02:22           0        7.32       0.269
  WS02006116           JUNCTION      0.00   490.77     0  02:23           0         7.3       0.256
  WS02006230           JUNCTION     10.28   332.79     0  03:11        0.29        6.19       0.237
  WS02006231           JUNCTION      0.00   321.64     0  03:12           0        5.91       0.145
  WS02006232           JUNCTION      0.00   321.21     0  03:12           0        5.92       0.268
  WS02006234           JUNCTION      0.00   320.68     0  03:11           0        5.93       0.132
  WS02006235           JUNCTION      0.00   320.40     0  03:11           0        5.97       0.173
  WS02006238           JUNCTION      0.00   221.65     0  03:07           0        3.84       0.196
  WS02006240           JUNCTION      0.00   221.03     0  03:05           0        3.83       0.300
  WS02006242           JUNCTION      0.00   220.99     0  03:04           0        3.83       0.367
  WS02006243           JUNCTION      0.00   221.23     0  03:02           0        3.83       0.174
  WS02006245           JUNCTION      0.00   222.08     0  02:54           0        3.84       0.218
  WS02006247           JUNCTION      0.00   223.74     0  02:54           0        3.85       0.176
  WS02006248           JUNCTION      0.00   224.93     0  02:53           0        3.85       0.118
  WS02006249           JUNCTION      0.00   225.88     0  02:53           0        3.86       0.252
  WS02006239           JUNCTION      0.00   221.31     0  03:06           0        3.83       0.292
  WS02006251           JUNCTION      0.08   228.09     0  02:50     0.00217        3.87       0.227
  WS02006252           JUNCTION      0.00   200.00     0  02:50           0        3.66       0.012
  WS02006253           JUNCTION      2.28    67.60     0  02:14     0.00477       0.211       1.805
  WS02006256           JUNCTION      0.00   300.00     0  00:00           0        4.47       0.065
  WS02004138           JUNCTION      0.00   190.00     0  01:40           0        5.27       0.061
  WS02004407           JUNCTION      0.00   488.50     0  02:25           0        7.16       0.101
  WS02006228           JUNCTION      0.00   483.67     0  02:21           0        7.34       0.207
  WS02006229           JUNCTION      0.00   483.88     0  02:21           0        7.36       0.187
  WS02006280           JUNCTION      0.00   336.70     0  02:14           0        1.19       0.006
  WS02006284           JUNCTION      0.10   336.65     0  02:14      0.0027        1.19       0.095
  WS02006287           JUNCTION      0.00   336.53     0  02:14           0        1.19       0.061
  WSF200               JUNCTION      0.00   484.26     0  02:29           0        7.04       0.059
  HS02004901           JUNCTION     18.58    18.58     0  02:08      0.0444      0.0445       4.109
  HS02004881           JUNCTION      7.53    65.87     0  02:14      0.0194       0.207       0.139
  HS02004876           JUNCTION     12.01    59.05     0  02:14      0.0372       0.188       0.285
  HS02004870           JUNCTION     13.30    47.29     0  02:14      0.0367       0.151       0.070
  HS02004862           JUNCTION     10.82    34.86     0  02:14      0.0424       0.114       0.149
  HS02004856           JUNCTION      9.86    24.13     0  02:14      0.0276      0.0735       1.993
  HS02004852           JUNCTION      0.00    14.89     0  02:14           0      0.0459       0.114
  HS02004848           JUNCTION     21.84    21.84     0  02:16      0.0879      0.0879       0.049
  HS02004842           JUNCTION      0.00     7.81     0  02:26           0       0.055      30.933
  HS02004837           JUNCTION     27.68    33.96     0  02:13       0.243       0.285       0.285
  HS02004830           JUNCTION      0.15    34.09     0  02:14     0.00423       0.275       0.450
  HS02004824           JUNCTION     24.54    58.34     0  02:17       0.115       0.389       0.138
  HS02004817           JUNCTION      0.60    58.92     0  02:17      0.0169       0.406       4.286
  HS02004807           JUNCTION     25.01    81.76     0  02:15      0.0674       0.456       0.934
  HS02004802           JUNCTION      0.00    82.40     0  02:16           0       0.452       0.907
  HS02004799           JUNCTION     19.27   217.43     0  02:12      0.0546        0.64       0.357
  HS02004792           JUNCTION     85.88   198.49     0  02:11       0.235       0.586       0.069
  HS02004788           JUNCTION     27.80   115.36     0  02:12       0.123       0.352       0.111
  HS02004785           JUNCTION      0.15    87.97     0  02:11     0.00423       0.231       0.210
  HS02004777           JUNCTION      0.03    88.42     0  02:10    0.000846       0.232       2.287
  HS02004770           JUNCTION     72.88    89.88     0  02:09        0.19       0.232       1.347
  HS02004480           JUNCTION      0.00   256.48     0  02:13           0       0.752       0.103
  HS02004479           JUNCTION      0.00    39.94     0  02:14           0       0.124       0.594
  HS02004478           JUNCTION      0.00   336.52     0  02:14           0        1.19       0.051
  YS02001745           JUNCTION    124.63   268.17     0  03:20        1.26        1.28       0.818
  YS02001748           JUNCTION      0.04   361.43     0  03:20     0.00127        1.27       1.798
  YS02001751           JUNCTION      0.01   362.48     0  02:54     0.00031        1.23       1.900
  YS02001754           JUNCTION      0.26   191.65     0  02:48     0.00733        1.21       2.033
  YS02001762           JUNCTION      0.00   182.42     0  02:52           0        1.38       1.548
  YS02001765           JUNCTION      0.00   178.88     0  02:52           0        1.38       1.785
  YS02001767           JUNCTION      0.54   178.22     0  02:52      0.0151        1.39       2.599
  YS02001770           JUNCTION    159.80   182.70     0  02:25        1.45        1.46       2.163
  YS02001774           JUNCTION      0.00    65.08     0  02:11           0      0.0633      65.518
  YS02001779           JUNCTION      0.01    48.41     0  02:24    0.000141      0.0271     123.678
  YS02001882           JUNCTION      0.00    11.24     0  02:51           0      0.0109      20.675
  YS02001884           JUNCTION      0.00    17.97     0  02:04           0      0.0365      16.933
  YS02001759           JUNCTION    156.22   338.83     0  02:52        1.34        2.68       0.848
  YS02001887           JUNCTION    205.33   221.12     0  02:39        1.58         1.6       0.477
  YS02001890           JUNCTION      0.00   216.99     0  02:40           0        1.56       0.533
  YS02001898           JUNCTION      0.00   221.16     0  02:41           0        1.55       0.164
  YS02001901           JUNCTION      0.00   218.45     0  02:39           0        1.55       0.385
  YS02001904           JUNCTION      0.00   228.01     0  02:39           0        1.55       0.357
  YS02001907           JUNCTION      0.00   406.75     0  02:48           0        3.36       0.681
  YS02001910           JUNCTION      0.00   187.72     0  03:00           0        1.82       0.591
  YS02001915           JUNCTION    111.48   174.97     0  02:57        1.07        1.83       0.278
  YS02001918           JUNCTION      0.00    59.02     0  02:57           0       0.758       0.184
  YS02001619           JUNCTION    108.45   108.45     0  02:49        1.06        1.06       1.132
  YS02001629           JUNCTION      0.00   215.28     0  02:48           0       0.984       2.936
  YS02001641           JUNCTION      0.00   253.87     0  03:11           0        2.13       0.989
  YS02001644           JUNCTION    118.43   365.03     0  02:54        1.21        3.39       0.768
  YS02001652           JUNCTION      0.00   208.03     0  02:56           0        1.11       2.109
  YS02001655           JUNCTION      0.15   358.74     0  02:48     0.00434        1.14       2.115
  YS02001920           JUNCTION      2.87    56.87     0  03:01      0.0809       0.761       0.311
  YS02001923           JUNCTION      0.04    54.00     0  03:01     0.00106        0.68       0.056
  YS02001926           JUNCTION      0.05    54.02     0  03:01     0.00147       0.682       0.386
  YS02001929           JUNCTION     53.99    53.99     0  03:01       0.681       0.681       0.054
  YS02001658           JUNCTION      0.00   509.93     0  03:14           0        1.23       1.572
  YS02001661           JUNCTION      0.00   432.45     0  03:57           0        1.84       0.570
  YS02001664           JUNCTION    145.76   377.22     0  03:58        1.17        1.76       0.281
  YS02001622           JUNCTION      0.00   159.41     0  02:49           0        1.05       3.087
  YS02001633           JUNCTION    120.36   253.99     0  03:11        1.25        2.19       1.476
  YS02001649           JUNCTION      0.00   551.53     0  02:56           0        3.62       1.021
  YS02001757           JUNCTION      0.00   945.71     0  02:49           0        7.31       1.274
  YS02001895           JUNCTION      0.00   214.44     0  02:38           0        1.56       0.269
  YS02001625           JUNCTION      0.00   215.37     0  02:48           0        1.02       4.009
  YS02163301           JUNCTION      0.00   145.37     0  03:11           0       0.973       2.510
  YS02163601           JUNCTION      0.11   253.89     0  03:11      0.0031        2.14       1.409
  YS02164001           JUNCTION      0.00   254.05     0  03:11           0        2.12       0.939
  YS02001647           JUNCTION      0.00   364.27     0  02:54           0        2.62       1.073
  YSB1154              JUNCTION     21.36    21.36     0  02:12      0.0662      0.0675       2.182
  YSB6556              JUNCTION      0.00    21.33     0  02:12           0      0.0685       1.856
  YSB1174              JUNCTION     21.13    21.13     0  02:07      0.0481      0.0491       2.680
  YSB1171              JUNCTION      0.00    39.84     0  02:12           0       0.123       5.411
  YS02006553           JUNCTION      0.00   394.51     0  02:48           0        3.35       0.440
  YS02006561           JUNCTION      0.00   599.88     0  02:38           0        4.74       0.000
  YS02006556           JUNCTION      0.00   393.87     0  02:51           0        3.36       0.318
  YS02006558           JUNCTION    173.54   575.71     0  02:53        1.44        4.77       0.113
  YS02001783           JUNCTION      0.00   562.61     0  02:52           0        4.74       0.038
  YS02001784           JUNCTION      1.06   562.04     0  02:48      0.0299        4.76       0.061
  YS02001786           JUNCTION      0.06   561.92     0  02:52     0.00159        4.76       0.059
  YS02001788           JUNCTION      0.07   572.53     0  02:52       0.002        4.76       0.034
  YS02001790           JUNCTION      0.15   559.66     0  02:52     0.00437        4.77       0.042
  YS02001791           JUNCTION      0.00   559.69     0  02:52           0        4.76       0.020
  YS02001793           JUNCTION      0.00   706.95     0  02:44           0        4.76      -0.022
  WS02004139           JUNCTION      0.32   190.33     0  00:20     0.00905        5.28       0.581
  WSC                  OUTFALL       0.00   694.10     0  02:33           0        12.8       0.000
  3                    OUTFALL       0.00   250.55     0  00:00           0        2.31       0.000
  4                    OUTFALL       0.00     0.00     0  00:00           0           0       0.000 ltr
  5                    OUTFALL       0.00     0.00     0  00:00           0           0       0.000 ltr
  JK-storage           STORAGE       0.00  1004.93     0  02:43           0        4.92      -0.554
  CC-storage           STORAGE       0.00   946.57     0  02:49           0         7.2       0.869
  XR-storage           STORAGE     401.86   401.86     0  02:45        7.76        8.36       0.000
  
  
  **********************
  Node Surcharge Summary
  **********************
  
  Surcharging occurs when water rises above the top of the highest conduit.
  ---------------------------------------------------------------------
                                               Max. Height   Min. Depth
                                   Hours       Above Crown    Below Rim
  Node                 Type      Surcharged         Meters       Meters
  ---------------------------------------------------------------------
  WS02006109           JUNCTION        0.90          0.091        1.729
  WS02006228           JUNCTION        0.86          0.106        2.094
  YS02001748           JUNCTION        4.23          0.220        0.970
  YS02001751           JUNCTION        4.75          0.878        0.322
  YS02001754           JUNCTION        5.25          0.850        0.300
  YS02001762           JUNCTION        5.48          1.014        0.136
  YS02001765           JUNCTION        5.46          0.959        0.141
  YS02001767           JUNCTION        5.43          0.911        0.119
  YS02001770           JUNCTION        5.42          0.869        0.051
  YS02001774           JUNCTION        5.48          0.961        0.089
  YS02001779           JUNCTION        5.22          0.680        0.000
  YS02001759           JUNCTION        5.49          1.049        0.161
  YS02001619           JUNCTION        4.64          0.610        0.000
  YS02001629           JUNCTION        4.67          0.470        0.000
  YS02001641           JUNCTION        5.47          0.938        0.162
  YS02001644           JUNCTION        5.47          0.920        0.000
  YS02001652           JUNCTION        5.30          1.006        0.124
  YS02001655           JUNCTION        4.78          1.137        0.063
  YS02001658           JUNCTION        4.26          1.096        0.204
  YS02001661           JUNCTION        0.03          0.237        1.153
  YS02001622           JUNCTION        4.75          0.597        0.023
  YS02001633           JUNCTION        5.44          0.923        0.137
  YS02001649           JUNCTION        5.48          1.050        0.000
  YS02001757           JUNCTION        5.53          1.157        0.053
  YS02001625           JUNCTION        5.40          0.780        0.000
  YS02163301           JUNCTION        5.43          0.881        0.149
  YS02163601           JUNCTION        5.47          0.992        0.088
  YS02164001           JUNCTION        5.45          0.923        0.177
  YS02001647           JUNCTION        5.34          0.796        0.104
  YS02006553           JUNCTION        0.03          0.022        1.168
  YS02001783           JUNCTION        0.01          0.074        1.526
  YS02001784           JUNCTION        0.03          0.095        1.395
  YS02001786           JUNCTION        0.01          0.047        1.383
  YS02001788           JUNCTION        0.01          0.026        1.454
  YS02001790           JUNCTION        1.38          0.458        0.699
  YS02001791           JUNCTION        1.52          0.703        1.217
  YS02001793           JUNCTION        1.74          1.444        1.156
  
  
  *********************
  Node Flooding Summary
  *********************
  
  Flooding refers to all water that overflows a node, whether it ponds or not.
  --------------------------------------------------------------------------
                                                             Total   Maximum
                                 Maximum   Time of Max       Flood    Ponded
                        Hours       Rate    Occurrence      Volume     Depth
  Node                 Flooded       LPS   days hr:min    10^6 ltr    Meters
  --------------------------------------------------------------------------
  YS02001779              0.58      7.00      0  04:08       0.002     0.000
  YS02001619              0.01     13.40      0  03:21       0.000     0.000
  YS02001629              0.01     17.94      0  03:22       0.000     0.000
  YS02001644              2.51    293.12      0  04:21       0.805     0.000
  YS02001649              0.01      2.69      0  04:08       0.000     0.000
  YS02001625              0.06     11.91      0  03:29       0.001     0.000
  JK-storage              1.07    259.71      0  02:52       0.474     0.000
  XR-storage              5.51    211.86      0  02:45       2.162     0.000
  
  
  **********************
  Storage Volume Summary
  **********************
  
  --------------------------------------------------------------------------------------------------
                         Average     Avg  Evap Exfil       Maximum     Max    Time of Max    Maximum
                          Volume    Pcnt  Pcnt  Pcnt        Volume    Pcnt     Occurrence    Outflow
  Storage Unit           1000 m3    Full  Loss  Loss       1000 m3    Full    days hr:min        LPS
  --------------------------------------------------------------------------------------------------
  JK-storage               0.109      38     0     0         0.291     100       0  02:50     446.67
  CC-storage               2.910      19     0     0         3.776      24       0  04:17     200.00
  XR-storage               0.908      98     0     0         0.926     100       0  02:19     190.00
  
  
  ***********************
  Outfall Loading Summary
  ***********************
  
  -----------------------------------------------------------
                         Flow       Avg       Max       Total
                         Freq      Flow      Flow      Volume
  Outfall Node           Pcnt       LPS       LPS    10^6 ltr
  -----------------------------------------------------------
  WSC                   99.99    525.60    694.10      12.785
  3                     78.20    133.20    250.55       2.309
  4                      0.00      0.00      0.00       0.000
  5                      0.00      0.00      0.00       0.000
  -----------------------------------------------------------
  System                44.55    658.79    871.62      15.094
  
  
  ********************
  Link Flow Summary
  ********************
  
  -----------------------------------------------------------------------------
                                 Maximum  Time of Max   Maximum    Max/    Max/
                                  |Flow|   Occurrence   |Veloc|    Full    Full
  Link                 Type          LPS  days hr:min     m/sec    Flow   Depth
  -----------------------------------------------------------------------------
  WS02003066WSF200     CONDUIT    484.26     0  02:29      2.68    0.08    0.22
  WS02006287WS02006284 CONDUIT    336.55     0  02:14      1.91    0.16    0.28
  WS02006284WS02006280 CONDUIT    336.70     0  02:14      2.15    0.14    0.25
  WS02006280WS02006229 CONDUIT    336.71     0  02:14      3.46    0.07    0.18
  WS02006229WS02006228 CONDUIT    483.67     0  02:21      0.96    1.60    1.00
  WS02006256WS02006235 CONDUIT    166.25     0  00:01      2.58    1.76    1.00
  WS02006253WS02006251 CONDUIT     67.56     0  02:14      0.59    0.20    0.62
  WS02006252WS02006251 CONDUIT    200.34     0  02:50      1.97    0.74    0.76
  WS02006251WS02006249 CONDUIT    225.88     0  02:53      0.95    0.65    0.62
  WS02006249WS02006248 CONDUIT    224.93     0  02:53      1.02    1.23    0.59
  WS02006248WS02006247 CONDUIT    223.74     0  02:54      0.98    0.49    0.62
  WS02006247WS02006245 CONDUIT    222.08     0  02:54      0.93    1.76    0.65
  WS02006245WS02006243 CONDUIT    221.23     0  03:02      0.93    0.65    0.66
  WS02006243WS02006242 CONDUIT    220.99     0  03:04      0.77    0.47    0.76
  WS02006242WS02006240 CONDUIT    221.03     0  03:05      0.70    0.88    0.83
  WS02006240WS02006239 CONDUIT    221.31     0  03:06      0.73    0.70    0.81
  WS02006239WS02006238 CONDUIT    221.65     0  03:07      0.67    0.71    0.91
  WS02006238WS02006235 CONDUIT    221.84     0  03:07      1.25    0.50    0.94
  WS02006235WS02006234 CONDUIT    320.68     0  03:11      0.94    3.38    0.88
  WS02006234WS02006232 CONDUIT    321.21     0  03:12      1.13    0.65    0.94
  WS02006232WS02006231 CONDUIT    321.64     0  03:12      0.94    0.67    0.89
  WS02006231WS02006230 CONDUIT    322.51     0  03:11      1.29    4.89    0.75
  WS02006230WS02006229 CONDUIT    334.10     0  03:10      0.87    7.44    1.00
  WS02006228WS02006109 CONDUIT    483.68     0  02:21      0.96    2.11    1.00
  WS02006116WS02004401 CONDUIT    489.51     0  02:24      0.73    0.67    0.80
  WS02006115WS02006116 CONDUIT    490.77     0  02:23      0.87    0.63    0.72
  WS02006113WS02006111 CONDUIT    500.45     0  02:21      2.37    0.60    0.44
  WS02006112WS02006115 CONDUIT    493.04     0  02:22      0.72    0.29    0.85
  WS02006111WS02006112 CONDUIT    486.86     0  02:21      1.37    0.23    0.66
  WS02006110WS02006113 CONDUIT    484.95     0  02:21      1.17    0.44    0.77
  WS02006109WS02006110 CONDUIT    484.91     0  02:21      0.97    0.93    0.98
  WS02004411WS02004412 CONDUIT    484.73     0  02:28      0.88    0.69    0.66
  WS02004401WS02004402 CONDUIT    488.85     0  02:24      0.77    0.59    0.83
  WS02004413WS02003067 CONDUIT    484.21     0  02:29      1.05    0.21    0.57
  WS02004412WS02004413 CONDUIT    484.32     0  02:28      0.77    0.32    0.75
  WS02004410WS02004411 CONDUIT    485.46     0  02:27      0.90    0.66    0.65
  WS02004409WS02004410 CONDUIT    486.71     0  02:26      0.94    0.63    0.64
  WS02004407WS02004409 CONDUIT    488.46     0  02:26      1.46    0.17    0.45
  WS02004406WS02004407 CONDUIT    488.50     0  02:25      0.98    0.22    0.61
  WS02004405WS02004406 CONDUIT    488.54     0  02:25      0.66    0.96    0.93
  WS02004404WS02004405 CONDUIT    488.52     0  02:25      0.84    4.79    0.93
  WS02004403WS02004404 CONDUIT    488.40     0  02:25      0.74    0.35    0.89
  WS02004402WS02004403 CONDUIT    488.51     0  02:25      0.75    0.70    0.85
  WS02004139WS02001211 CONDUIT    191.05     0  02:45      0.53    0.24    0.46
  WS02004138WS02004139 CONDUIT    190.01     0  00:20      2.39    0.04    0.33
  WS02003067WS02003066 CONDUIT    484.25     0  02:29      1.14    0.16    0.40
  WS02001213WS02003059 CONDUIT    201.49     0  02:44      0.47    0.33    0.66
  WS02001212WS02001213 CONDUIT    200.02     0  02:44      1.03    0.31    0.34
  WS02001211WS02001212 CONDUIT    199.27     0  02:45      0.54    0.15    0.50
  WS02003072WS02003073 CONDUIT    692.31     0  02:33      1.55    1.50    0.42
  WS02003069WS02003072 CONDUIT    692.31     0  02:32      1.47    0.33    0.43
  WS02003060WS02003069 CONDUIT    692.04     0  02:31      1.73    0.27    0.38
  WS02003059WS02003060 CONDUIT    203.48     0  02:43      0.67    0.13    0.57
  HS02004901HS02004770 CONDUIT     17.40     0  02:11      0.06    0.07    0.39
  HS02004876HS02004881 CONDUIT     59.04     0  02:14      0.84    0.63    0.10
  HS02004870HS02004876 CONDUIT     47.25     0  02:14      0.57    0.03    0.12
  HS02004842HS02004848 CONDUIT      7.81     0  02:26      0.04    0.00    0.29
  HS02004837HS02004842 CONDUIT      8.13     0  02:26      0.41    0.00    0.31
  HS02004830HS02004837 CONDUIT     33.94     0  02:14      0.51    0.03    0.09
  HS02004824HS02004830 CONDUIT     34.08     0  02:15      0.55    0.04    0.09
  HS02004817HS02004824 CONDUIT     58.32     0  02:17      0.19    0.03    0.44
  HS02004770HS02004777 CONDUIT     88.39     0  02:10      0.32    0.16    0.40
  HS02004799HS02004480 CONDUIT    217.08     0  02:12      0.76    0.27    0.41
  HS02004792HS02004799 CONDUIT    198.39     0  02:12      0.87    0.12    0.33
  HS02004788HS02004792 CONDUIT    115.26     0  02:12      1.00    0.08    0.17
  HS02004785HS02004788 CONDUIT     87.86     0  02:12      0.66    0.66    0.19
  HS02004777HS02004785 CONDUIT     87.82     0  02:11      0.38    0.11    0.33
  HS02004480HS02004478 CONDUIT    256.46     0  02:13      1.18    1.08    0.31
  HS02004479HS02004480 CONDUIT     40.31     0  02:14      0.16    0.04    0.39
  HS02004862HS02004870 CONDUIT     34.82     0  02:15      0.58    0.04    0.09
  HS02004848HS02004852 CONDUIT     14.89     0  02:14      0.39    0.02    0.05
  HS02004856HS02004862 CONDUIT     24.08     0  02:14      0.43    0.02    0.08
  HS02004852HS02004856 CONDUIT     14.84     0  02:15      0.19    0.02    0.11
  HS02004802HS02004478 CONDUIT     83.17     0  02:17      0.38    0.07    0.32
  HS02004478WS02006287 CONDUIT    336.53     0  02:14      1.61    0.09    0.23
  HS02004817HS02004807 CONDUIT     59.99     0  02:18      0.15    0.04    0.59
  HS02004807HS02004802 CONDUIT     82.40     0  02:16      0.32    0.16    0.37
  YS02001759YS02001757 CONDUIT    340.94     0  02:52      0.43    0.24    1.00
  YS02001762YS02001759 CONDUIT    185.69     0  02:52      0.24    0.21    1.00
  YS02001765YS02001762 CONDUIT    182.42     0  02:52      0.23    0.17    1.00
  YS02001770YS02001767 CONDUIT    177.68     0  02:52      0.34    0.70    1.00
  YS02001774YS02001770 CONDUIT     65.08     0  02:11      0.16    0.04    1.00
  YS02001779YS02001774 CONDUIT     48.41     0  02:24      0.10    0.02    1.00
  YS02001649YS02001757 CONDUIT    551.79     0  02:56      0.70    0.33    1.00
  YS02001767YS02001765 CONDUIT    178.88     0  02:52      0.26    0.22    1.00
  YS02006561YS02001783 CONDUIT    562.61     0  02:52      2.05    0.29    0.68
  YS02001783YS02001784 CONDUIT    560.98     0  02:48      1.51    0.77    1.00
  YS02001784YS02001785 CONDUIT    561.86     0  02:52      1.61    1.31    1.00
  YS02001788YS02001790 CONDUIT    559.50     0  02:52      2.15    0.41    1.00
  YS02001790YS02001791 CONDUIT    559.69     0  02:52      2.54    0.61    1.00
  YS02001791YS02001793 CONDUIT    706.95     0  02:44      5.21    0.30    1.00
  YS02001910YS02001907 CONDUIT    188.21     0  02:52      0.49    0.11    0.89
  YS02001786YS02001788 CONDUIT    572.45     0  02:52      2.08    1.10    1.00
  YS02001915YS02001910 CONDUIT    187.72     0  03:00      0.45    0.09    0.68
  YS02001918YS02001915 CONDUIT     64.58     0  02:57      0.44    0.04    0.39
  YS02001923YS02001920 CONDUIT     54.00     0  03:01      0.54    0.02    0.20
  YS02001926YS02001923 CONDUIT     53.96     0  03:01      0.61    0.08    0.17
  YS02001929YS02001926 CONDUIT     53.97     0  03:01      0.66    0.03    0.16
  YS02001920YS02001918 CONDUIT     59.02     0  02:57      0.55    0.06    0.26
  YS02001629YS02163301 CONDUIT    145.37     0  03:11      0.19    0.18    1.00
  YS02001619YS02001622 CONDUIT    159.41     0  02:49      0.76    0.23    1.00
  YS02001622YS02001625 CONDUIT    215.37     0  02:48      0.32    0.11    1.00
  YS02001625YS02001629 CONDUIT    215.28     0  02:48      0.32    0.10    1.00
  YS02163301YS02001633 CONDUIT    145.14     0  03:11      0.18    0.14    1.00
  YS02163601YS02164001 CONDUIT    254.05     0  03:11      0.32    0.23    1.00
  YS02164001YS02001641 CONDUIT    253.87     0  03:11      0.32    0.35    1.00
  YS02001641YS02001644 CONDUIT    254.23     0  03:11      0.32    0.82    1.00
  YS02001647YS02001649 CONDUIT    365.03     0  02:54      0.46    0.19    1.00
  YS02006553YS02006556 CONDUIT    393.87     0  02:51      0.51    0.34    0.97
  YS02006556YS02006558 CONDUIT    407.84     0  02:53      0.52    0.32    0.99
  YSB6556YSB1171       CONDUIT     21.80     0  02:15      0.08    0.02    0.66
  YS02001907YS02006553 CONDUIT    394.51     0  02:48      0.44    0.46    1.00
  YS02006558YS02006561 CONDUIT    599.88     0  02:38      2.98    1.33    0.69
  YS02001633YS02163601 CONDUIT    253.78     0  03:11      0.32    0.27    1.00
  YS02001644YS02001647 CONDUIT    364.27     0  02:54      0.46    0.21    1.00
  YS02001745YS02001748 CONDUIT    361.39     0  03:20      1.58    0.14    0.92
  YS02001748YS02001751 CONDUIT    362.47     0  02:54      1.23    0.18    1.00
  YS02001751YS02001754 CONDUIT    191.39     0  02:48      1.07    0.09    1.00
  YS02001754YS02001757 CONDUIT    191.60     0  02:48      0.33    0.08    1.00
  YS02001882YS02001884 CONDUIT     13.33     0  02:41      0.06    0.02    0.62
  YS02001884YS02001887 CONDUIT     17.97     0  02:04      0.07    0.02    0.71
  YS02001890YS02001895 CONDUIT    214.44     0  02:38      0.38    0.10    0.68
  YS02001895YS02001898 CONDUIT    221.16     0  02:41      0.53    0.38    0.54
  YS02001898YS02001901 CONDUIT    218.45     0  02:39      0.44    0.14    0.62
  YS02001901YS02001904 CONDUIT    228.01     0  02:39      0.41    0.35    0.67
  YS02001904YS02001907 CONDUIT    225.70     0  02:48      0.33    0.08    0.83
  YS02001887YS02001890 CONDUIT    216.99     0  02:40      0.34    0.37    0.76
  YS02001652YS02001649 CONDUIT    209.10     0  02:41      0.38    0.10    1.00
  YS02001655YS02001652 CONDUIT    208.03     0  02:56      1.14    0.10    1.00
  YS02001658YS02001655 CONDUIT    358.59     0  02:48      1.42    0.15    1.00
  YS02001661YS02001658 CONDUIT    509.93     0  03:14      1.65    0.20    1.00
  YS02001664YS02001661 CONDUIT    432.45     0  03:57      1.41    0.14    0.70
  YSB1154YSB6556       CONDUIT     21.33     0  02:12      0.19    0.04    0.55
  YSB1174YSB1171       CONDUIT     19.56     0  02:09      0.08    0.03    0.67
  YSB1171HS02004479    CONDUIT     39.94     0  02:14      0.54    0.03    0.52
  HS02004881HS02006253 CONDUIT     65.86     0  02:14      2.04    0.01    0.09
  YS02001793JiankangQianchi CONDUIT   1004.93     0  02:43     13.01    0.08    1.00
  YS02001757CaochengTiaoxuchi CONDUIT    946.57     0  02:49      1.92    0.42    1.00
  WSF200WS02003060     CONDUIT    484.18     0  02:29      1.70    0.11    0.30
  1                    CONDUIT    694.10     0  02:33      3.01    0.24    0.33
  2                    CONDUIT      0.00     0  00:00      0.00    0.00    0.00
  3                    CONDUIT    250.55     0  00:00      8.26    0.40    0.46
  4                    CONDUIT      0.00     0  00:00      0.00    0.00    0.00
  CC-Pump-1            PUMP       200.00     0  02:50              1.00
  CC-Pump-2            PUMP         0.00     0  00:00              0.00
  JK-Pump-1            PUMP       300.00     0  00:00              1.00
  JK-Pump-2            PUMP         0.00     0  00:00              0.00
  XR-Pump-1            PUMP        95.00     0  00:00              1.00
  XR-Pump-2            PUMP        95.00     0  01:50              1.00
  XR-Pump-3            PUMP        95.00     0  00:20              1.00
  XR-Pump-4            PUMP        95.00     0  01:50              1.00
  
  
  ***************************
  Flow Classification Summary
  ***************************
  
  -------------------------------------------------------------------------------------
                      Adjusted    ---------- Fraction of Time in Flow Class ---------- 
                       /Actual         Up    Down  Sub   Sup   Up    Down  Norm  Inlet 
  Conduit               Length    Dry  Dry   Dry   Crit  Crit  Crit  Crit  Ltd   Ctrl  
  -------------------------------------------------------------------------------------
  WS02003066WSF200        1.00   0.06  0.00  0.00  0.00  0.94  0.00  0.00  0.73  0.00
  WS02006287WS02006284    1.00   0.04  0.01  0.00  0.68  0.26  0.00  0.00  0.76  0.00
  WS02006284WS02006280    1.00   0.05  0.00  0.00  0.00  0.00  0.00  0.95  0.00  0.00
  WS02006280WS02006229    1.00   0.05  0.00  0.00  0.00  0.00  0.00  0.95  0.00  0.00
  WS02006229WS02006228    1.00   0.00  0.00  0.00  0.99  0.00  0.00  0.01  0.00  0.00
  WS02006256WS02006235    1.00   0.00  0.00  0.00  1.00  0.00  0.00  0.00  0.00  0.00
  WS02006253WS02006251    1.00   0.03  0.01  0.00  0.96  0.00  0.00  0.00  0.00  0.00
  WS02006252WS02006251    1.00   0.15  0.00  0.00  0.00  0.00  0.85  0.00  0.00  0.00
  WS02006251WS02006249    1.00   0.00  0.00  0.00  1.00  0.00  0.00  0.00  0.25  0.00
  WS02006249WS02006248    1.00   0.00  0.02  0.00  0.92  0.00  0.06  0.00  0.00  0.00
  WS02006248WS02006247    1.00   0.02  0.00  0.00  0.97  0.00  0.00  0.00  0.14  0.00
  WS02006247WS02006245    1.00   0.02  0.00  0.00  0.98  0.00  0.00  0.00  0.00  0.00
  WS02006245WS02006243    1.00   0.01  0.00  0.00  0.94  0.00  0.00  0.04  0.01  0.00
  WS02006243WS02006242    1.00   0.01  0.00  0.00  0.99  0.00  0.00  0.00  0.25  0.00
  WS02006242WS02006240    1.00   0.00  0.00  0.00  1.00  0.00  0.00  0.00  0.00  0.00
  WS02006240WS02006239    1.00   0.00  0.00  0.00  0.95  0.00  0.00  0.04  0.01  0.00
  WS02006239WS02006238    1.00   0.00  0.00  0.00  1.00  0.00  0.00  0.00  0.01  0.00
  WS02006238WS02006235    1.00   0.00  0.00  0.00  1.00  0.00  0.00  0.00  0.00  0.00
  WS02006235WS02006234    1.00   0.00  0.00  0.00  0.95  0.00  0.05  0.00  0.00  0.00
  WS02006234WS02006232    1.00   0.00  0.00  0.00  1.00  0.00  0.00  0.00  0.15  0.00
  WS02006232WS02006231    1.00   0.00  0.00  0.00  0.99  0.00  0.00  0.00  0.00  0.00
  WS02006231WS02006230    1.00   0.00  0.00  0.00  0.40  0.00  0.59  0.00  0.00  0.00
  WS02006230WS02006229    1.00   0.00  0.00  0.00  0.98  0.00  0.00  0.02  0.01  0.00
  WS02006228WS02006109    1.00   0.00  0.00  0.00  1.00  0.00  0.00  0.00  0.00  0.00
  WS02006116WS02004401    1.00   0.03  0.00  0.00  0.97  0.00  0.00  0.00  0.00  0.00
  WS02006115WS02006116    1.00   0.03  0.00  0.00  0.97  0.00  0.00  0.01  0.00  0.00
  WS02006113WS02006111    1.00   0.02  0.00  0.00  0.00  0.98  0.00  0.00  0.11  0.00
  WS02006112WS02006115    1.00   0.02  0.00  0.00  0.97  0.00  0.00  0.00  0.00  0.00
  WS02006111WS02006112    1.00   0.02  0.00  0.00  0.97  0.00  0.00  0.00  0.98  0.00
  WS02006110WS02006113    1.00   0.01  0.01  0.00  0.98  0.00  0.00  0.00  0.00  0.00
  WS02006109WS02006110    1.00   0.00  0.01  0.00  0.98  0.00  0.01  0.00  0.00  0.00
  WS02004411WS02004412    1.00   0.04  0.00  0.00  0.96  0.00  0.00  0.00  0.00  0.00
  WS02004401WS02004402    1.00   0.03  0.00  0.00  0.97  0.00  0.00  0.00  0.00  0.00
  WS02004413WS02003067    1.00   0.04  0.01  0.00  0.00  0.00  0.94  0.00  0.00  0.00
  WS02004412WS02004413    1.00   0.04  0.00  0.00  0.96  0.00  0.00  0.00  0.03  0.00
  WS02004410WS02004411    1.00   0.04  0.00  0.00  0.96  0.00  0.00  0.00  0.04  0.00
  WS02004409WS02004410    1.00   0.04  0.00  0.00  0.96  0.00  0.00  0.00  0.04  0.00
  WS02004407WS02004409    1.00   0.04  0.00  0.00  0.96  0.00  0.00  0.00  0.89  0.00
  WS02004406WS02004407    1.00   0.00  0.04  0.00  0.96  0.00  0.00  0.00  0.00  0.00
  WS02004405WS02004406    1.00   0.00  0.00  0.00  1.00  0.00  0.00  0.00  0.00  0.00
  WS02004404WS02004405    1.00   0.00  0.00  0.00  1.00  0.00  0.00  0.00  0.00  0.00
  WS02004403WS02004404    1.00   0.00  0.03  0.00  0.97  0.00  0.00  0.00  0.01  0.00
  WS02004402WS02004403    1.00   0.03  0.00  0.00  0.97  0.00  0.00  0.00  0.00  0.00
  WS02004139WS02001211    1.00   0.00  0.00  0.00  0.99  0.00  0.01  0.00  0.00  0.00
  WS02004138WS02004139    1.00   0.00  0.00  0.00  0.99  0.01  0.00  0.00  1.00  0.00
  WS02003067WS02003066    1.00   0.06  0.00  0.00  0.94  0.00  0.00  0.00  0.00  0.00
  WS02001213WS02003059    1.00   0.00  0.01  0.00  0.99  0.00  0.00  0.00  0.00  0.00
  WS02001212WS02001213    1.00   0.01  0.00  0.00  0.90  0.00  0.09  0.00  0.00  0.00
  WS02001211WS02001212    1.00   0.00  0.01  0.00  0.99  0.00  0.00  0.00  0.00  0.00
  WS02003072WS02003073    1.00   0.00  0.00  0.00  0.00  0.00  0.00  1.00  0.00  0.00
  WS02003069WS02003072    1.00   0.00  0.00  0.00  0.99  0.01  0.00  0.00  0.27  0.00
  WS02003060WS02003069    1.00   0.00  0.00  0.00  0.99  0.01  0.00  0.00  0.22  0.00
  WS02003059WS02003060    1.00   0.00  0.00  0.00  1.00  0.00  0.00  0.00  0.02  0.00
  HS02004901HS02004770    1.00   0.04  0.00  0.00  0.95  0.00  0.00  0.00  0.02  0.00
  HS02004876HS02004881    1.00   0.02  0.00  0.00  0.95  0.02  0.00  0.00  0.00  0.00
  HS02004870HS02004876    1.00   0.01  0.00  0.00  0.99  0.00  0.00  0.00  0.95  0.00
  HS02004842HS02004848    1.00   0.00  0.05  0.00  0.95  0.00  0.00  0.00  0.67  0.00
  HS02004837HS02004842    1.00   0.00  0.00  0.00  0.99  0.01  0.00  0.00  0.11  0.00
  HS02004830HS02004837    1.00   0.00  0.00  0.00  1.00  0.00  0.00  0.00  0.99  0.00
  HS02004824HS02004830    1.00   0.00  0.00  0.00  1.00  0.00  0.00  0.00  0.00  0.00
  HS02004817HS02004824    1.00   0.00  0.00  0.00  1.00  0.00  0.00  0.00  1.00  0.00
  HS02004770HS02004777    1.00   0.00  0.05  0.00  0.95  0.00  0.00  0.00  0.07  0.00
  HS02004799HS02004480    1.00   0.00  0.03  0.00  0.94  0.00  0.03  0.00  0.00  0.00
  HS02004792HS02004799    1.00   0.00  0.00  0.00  0.99  0.01  0.00  0.00  0.98  0.00
  HS02004788HS02004792    1.00   0.00  0.00  0.00  0.99  0.01  0.00  0.00  0.98  0.00
  HS02004785HS02004788    1.00   0.00  0.00  0.00  1.00  0.00  0.00  0.00  0.00  0.00
  HS02004777HS02004785    1.00   0.00  0.00  0.00  1.00  0.00  0.00  0.00  0.20  0.00
  HS02004480HS02004478    1.00   0.05  0.00  0.00  0.73  0.00  0.00  0.22  0.00  0.00
  HS02004479HS02004480    1.00   0.03  0.00  0.00  0.97  0.00  0.00  0.00  0.16  0.00
  HS02004862HS02004870    1.00   0.00  0.00  0.00  1.00  0.00  0.00  0.00  0.05  0.00
  HS02004848HS02004852    1.00   0.05  0.00  0.00  0.95  0.00  0.00  0.00  0.71  0.00
  HS02004856HS02004862    1.00   0.00  0.07  0.00  0.93  0.00  0.00  0.00  0.75  0.00
  HS02004852HS02004856    1.00   0.05  0.01  0.00  0.95  0.00  0.00  0.00  0.83  0.00
  HS02004802HS02004478    1.00   0.05  0.00  0.00  0.95  0.00  0.00  0.00  0.01  0.00
  HS02004478WS02006287    1.00   0.06  0.00  0.00  0.83  0.11  0.00  0.00  0.73  0.00
  HS02004817HS02004807    1.00   0.00  0.05  0.00  0.95  0.00  0.00  0.00  0.00  0.00
  HS02004807HS02004802    1.00   0.05  0.00  0.00  0.95  0.00  0.00  0.00  0.01  0.00
  YS02001759YS02001757    1.00   0.00  0.00  0.00  1.00  0.00  0.00  0.00  0.17  0.00
  YS02001762YS02001759    1.00   0.00  0.00  0.00  1.00  0.00  0.00  0.00  0.04  0.00
  YS02001765YS02001762    1.00   0.00  0.00  0.00  1.00  0.00  0.00  0.00  0.22  0.00
  YS02001770YS02001767    1.00   0.00  0.00  0.00  1.00  0.00  0.00  0.00  0.00  0.00
  YS02001774YS02001770    1.00   0.00  0.05  0.00  0.95  0.00  0.00  0.00  0.06  0.00
  YS02001779YS02001774    1.00   0.00  0.00  0.00  1.00  0.00  0.00  0.00  0.26  0.00
  YS02001649YS02001757    1.00   0.00  0.00  0.00  1.00  0.00  0.00  0.00  0.19  0.00
  YS02001767YS02001765    1.00   0.00  0.00  0.00  1.00  0.00  0.00  0.00  0.01  0.00
  YS02006561YS02001783    1.00   0.07  0.00  0.00  0.22  0.71  0.00  0.00  0.66  0.00
  YS02001783YS02001784    1.00   0.00  0.07  0.00  0.93  0.00  0.00  0.00  0.00  0.00
  YS02001784YS02001785    1.00   0.00  0.00  0.00  1.00  0.00  0.00  0.00  0.24  0.00
  YS02001788YS02001790    1.00   0.00  0.00  0.00  0.34  0.66  0.00  0.00  0.68  0.00
  YS02001790YS02001791    1.00   0.00  0.00  0.00  0.30  0.70  0.00  0.00  0.44  0.00
  YS02001791YS02001793    1.00   0.00  0.00  0.00  0.31  0.68  0.00  0.00  0.02  0.00
  YS02001910YS02001907    1.00   0.00  0.00  0.00  0.97  0.00  0.00  0.03  0.13  0.00
  YS02001786YS02001788    1.00   0.00  0.00  0.00  0.32  0.68  0.00  0.00  0.00  0.00
  YS02001915YS02001910    1.00   0.00  0.00  0.00  0.99  0.01  0.00  0.00  0.23  0.00
  YS02001918YS02001915    1.00   0.00  0.01  0.00  0.98  0.01  0.00  0.00  0.66  0.00
  YS02001923YS02001920    1.00   0.00  0.00  0.00  1.00  0.00  0.00  0.00  1.00  0.00
  YS02001926YS02001923    1.00   0.00  0.03  0.00  0.00  0.00  0.97  0.00  0.00  0.00
  YS02001929YS02001926    1.00   0.00  0.05  0.00  0.95  0.00  0.00  0.00  0.87  0.00
  YS02001920YS02001918    1.00   0.00  0.01  0.00  0.99  0.00  0.00  0.00  0.00  0.00
  YS02001629YS02163301    1.00   0.06  0.00  0.00  0.94  0.00  0.00  0.00  0.00  0.00
  YS02001619YS02001622    1.00   0.04  0.00  0.00  0.96  0.00  0.00  0.00  0.00  0.00
  YS02001622YS02001625    1.00   0.05  0.00  0.00  0.95  0.00  0.00  0.00  0.12  0.00
  YS02001625YS02001629    1.00   0.05  0.02  0.00  0.92  0.00  0.01  0.00  0.00  0.00
  YS02163301YS02001633    1.00   0.00  0.06  0.00  0.94  0.00  0.00  0.00  0.00  0.00
  YS02163601YS02164001    1.00   0.00  0.04  0.00  0.96  0.00  0.00  0.00  0.00  0.00
  YS02164001YS02001641    1.00   0.01  0.03  0.00  0.96  0.00  0.00  0.00  0.07  0.00
  YS02001641YS02001644    1.00   0.00  0.01  0.00  0.99  0.00  0.00  0.00  0.00  0.00
  YS02001647YS02001649    1.00   0.00  0.07  0.00  0.93  0.00  0.00  0.00  0.01  0.00
  YS02006553YS02006556    1.00   0.01  0.00  0.00  0.99  0.00  0.00  0.00  0.03  0.00
  YS02006556YS02006558    1.00   0.00  0.00  0.00  1.00  0.00  0.00  0.00  0.00  0.00
  YSB6556YSB1171          1.00   0.03  0.02  0.00  0.96  0.00  0.00  0.00  0.00  0.00
  YS02001907YS02006553    1.00   0.00  0.02  0.00  0.97  0.00  0.00  0.00  0.00  0.00
  YS02006558YS02006561    1.00   0.07  0.00  0.00  0.00  0.93  0.00  0.00  0.58  0.00
  YS02001633YS02163601    1.00   0.00  0.01  0.00  0.99  0.00  0.00  0.00  0.19  0.00
  YS02001644YS02001647    1.00   0.00  0.07  0.00  0.93  0.00  0.00  0.00  0.00  0.00
  YS02001745YS02001748    1.00   0.00  0.00  0.00  0.90  0.00  0.00  0.10  0.04  0.00
  YS02001748YS02001751    1.00   0.00  0.00  0.00  0.98  0.02  0.00  0.00  0.23  0.00
  YS02001751YS02001754    1.00   0.00  0.00  0.00  0.93  0.00  0.00  0.07  0.01  0.00
  YS02001754YS02001757    1.00   0.00  0.00  0.00  0.99  0.01  0.00  0.00  0.26  0.00
  YS02001882YS02001884    1.00   0.06  0.00  0.00  0.94  0.00  0.00  0.00  0.00  0.00
  YS02001884YS02001887    1.00   0.03  0.01  0.00  0.96  0.00  0.00  0.00  0.00  0.00
  YS02001890YS02001895    1.00   0.00  0.06  0.00  0.94  0.00  0.00  0.00  0.00  0.00
  YS02001895YS02001898    1.00   0.06  0.00  0.00  0.93  0.00  0.01  0.00  0.00  0.00
  YS02001898YS02001901    1.00   0.06  0.00  0.00  0.94  0.00  0.00  0.00  0.02  0.00
  YS02001901YS02001904    1.00   0.06  0.00  0.00  0.94  0.00  0.00  0.00  0.00  0.00
  YS02001904YS02001907    1.00   0.00  0.06  0.00  0.94  0.00  0.00  0.00  0.00  0.00
  YS02001887YS02001890    1.00   0.00  0.00  0.00  0.97  0.00  0.02  0.00  0.00  0.00
  YS02001652YS02001649    1.00   0.00  0.00  0.00  1.00  0.00  0.00  0.00  0.25  0.00
  YS02001655YS02001652    1.00   0.00  0.00  0.00  0.93  0.00  0.00  0.07  0.01  0.00
  YS02001658YS02001655    1.00   0.00  0.05  0.00  0.92  0.02  0.00  0.00  0.07  0.00
  YS02001661YS02001658    1.00   0.05  0.00  0.00  0.90  0.05  0.00  0.00  0.04  0.00
  YS02001664YS02001661    1.00   0.04  0.00  0.00  0.87  0.08  0.00  0.00  0.29  0.00
  YSB1154YSB6556          1.00   0.04  0.00  0.00  0.96  0.00  0.00  0.00  0.02  0.00
  YSB1174YSB1171          1.00   0.03  0.01  0.00  0.96  0.00  0.00  0.00  0.00  0.00
  YSB1171HS02004479       1.00   0.03  0.00  0.00  0.97  0.00  0.00  0.00  0.13  0.00
  HS02004881HS02006253    1.00   0.03  0.00  0.00  0.82  0.01  0.00  0.14  0.64  0.00
  YS02001793JiankangQianchi    1.00   0.00  0.00  0.00  0.48  0.51  0.00  0.00  0.14  0.00
  YS02001757CaochengTiaoxuchi    1.00   0.00  0.08  0.00  0.92  0.00  0.00  0.00  0.00  0.00
  WSF200WS02003060        1.00   0.00  0.06  0.00  0.69  0.25  0.00  0.00  0.06  0.00
  1                       1.00   0.00  0.00  0.00  0.00  1.00  0.00  0.00  0.56  0.00
  2                       1.00   1.00  0.00  0.00  0.00  0.00  0.00  0.00  0.00  0.00
  3                       1.00   0.22  0.00  0.00  0.00  0.78  0.00  0.00  0.26  0.00
  4                       1.00   1.00  0.00  0.00  0.00  0.00  0.00  0.00  0.00  0.00
  
  
  *************************
  Conduit Surcharge Summary
  *************************
  
  ----------------------------------------------------------------------------
                                                           Hours        Hours 
                         --------- Hours Full --------   Above Full   Capacity
  Conduit                Both Ends  Upstream  Dnstream   Normal Flow   Limited
  ----------------------------------------------------------------------------
  WS02006229WS02006228        0.86      0.95      0.86      5.08         0.86
  WS02006256WS02006235        5.78      5.78      6.37      4.29         0.01
  WS02006249WS02006248        0.01      0.01      0.01      5.02         0.01
  WS02006247WS02006245        0.01      0.01      0.01      5.05         0.01
  WS02006235WS02006234        0.01      0.01      0.01      5.80         0.01
  WS02006231WS02006230        0.01      0.01      0.01      5.78         0.01
  WS02006230WS02006229        1.60      3.94      1.60      5.87         1.59
  WS02006228WS02006109        0.90      1.18      0.90      5.69         0.90
  WS02006111WS02006112        0.01      0.01      5.61      0.01         0.01
  WS02006110WS02006113        0.01      0.01      1.04      0.01         0.01
  WS02006109WS02006110        0.01      0.01      1.19      0.01         0.01
  WS02004404WS02004405        0.01      0.01      0.01      5.69         0.01
  WS02003072WS02003073        0.01      0.01      0.01      5.48         0.01
  HS02004480HS02004478        0.01      0.01      0.01      0.15         0.01
  YS02001759YS02001757        5.49      5.49      5.53      0.01         0.01
  YS02001762YS02001759        5.48      5.48      5.49      0.01         0.01
  YS02001765YS02001762        5.46      5.46      5.48      0.01         0.01
  YS02001770YS02001767        5.43      5.43      5.43      0.01         0.58
  YS02001774YS02001770        5.42      5.42      5.48      0.01         0.01
  YS02001779YS02001774        5.22      5.22      5.48      0.01         0.01
  YS02001649YS02001757        5.48      5.48      5.53      0.01         0.01
  YS02001767YS02001765        5.43      5.43      5.46      0.01         0.01
  YS02006561YS02001783        0.01      0.01      0.01      0.01         0.01
  YS02001783YS02001784        0.01      0.01      0.03      0.01         0.01
  YS02001784YS02001785        0.01      0.03      0.01      0.98         0.01
  YS02001788YS02001790        0.01      0.01      1.38      0.01         0.01
  YS02001790YS02001791        1.38      1.38      1.52      0.01         0.01
  YS02001791YS02001793        1.52      1.52      1.81      0.01         0.01
  YS02001786YS02001788        0.01      0.01      0.01      0.44         0.01
  YS02001629YS02163301        5.43      5.43      5.43      0.01         0.01
  YS02001619YS02001622        4.64      4.64      4.75      0.01         0.02
  YS02001622YS02001625        4.75      4.75      5.40      0.01         0.01
  YS02001625YS02001629        4.67      4.67      5.40      0.01         0.01
  YS02163301YS02001633        5.43      5.43      5.46      0.01         0.01
  YS02163601YS02164001        5.45      5.45      5.47      0.01         0.01
  YS02164001YS02001641        5.45      5.45      5.47      0.01         0.03
  YS02001641YS02001644        5.47      5.47      5.47      0.01         0.76
  YS02001647YS02001649        5.34      5.34      5.48      0.01         0.01
  YS02006553YS02006556        0.01      0.01      0.03      0.01         0.01
  YS02006556YS02006558        0.01      0.01      0.23      0.01         0.01
  YS02001907YS02006553        0.99      0.99      1.19      0.01         0.01
  YS02006558YS02006561        0.01      0.01      0.01      0.82         0.01
  YS02001633YS02163601        5.44      5.44      5.47      0.01         0.01
  YS02001644YS02001647        5.34      5.34      5.47      0.01         0.01
  YS02001745YS02001748        0.01      0.01      4.23      0.01         0.01
  YS02001748YS02001751        4.42      4.42      4.75      0.01         0.01
  YS02001751YS02001754        4.75      4.75      5.25      0.01         0.01
  YS02001754YS02001757        5.31      5.31      5.53      0.01         0.01
  YS02001904YS02001907        0.01      0.01      0.02      0.01         0.01
  YS02001652YS02001649        5.37      5.37      5.48      0.01         0.01
  YS02001655YS02001652        4.78      4.78      5.30      0.01         0.01
  YS02001658YS02001655        4.26      4.26      4.78      0.01         0.01
  YS02001661YS02001658        0.02      0.02      4.26      0.01         0.01
  YS02001664YS02001661        0.01      0.01      0.57      0.01         0.01
  YS02001793JiankangQianchi        1.74      1.74      2.79      0.01         0.01
  YS02001757CaochengTiaoxuchi        4.42      4.42      5.53      0.01         0.01
  
  
  ***************
  Pumping Summary
  ***************
  
  ---------------------------------------------------------------------------------------------------------
                                                  Min       Avg       Max     Total     Power    % Time Off
                        Percent   Number of      Flow      Flow      Flow    Volume     Usage    Pump Curve
  Pump                 Utilized   Start-Ups       LPS       LPS       LPS  10^6 ltr     Kw-hr    Low   High
  ---------------------------------------------------------------------------------------------------------
  CC-Pump-1               65.96           1      0.00    196.91    200.00     3.660      3.56    0.0    0.0
  CC-Pump-2                0.00           0      0.00      0.00      0.00     0.000      0.00    0.0    0.0
  JK-Pump-1              100.00           1      0.00    200.36    300.00     4.468     48.59    0.0    0.0
  JK-Pump-2                0.00           0      0.00      0.00      0.00     0.000      0.00    0.0    0.0
  XR-Pump-1               34.04           2      0.00     84.56     95.00     0.827      6.80    0.0    0.0
  XR-Pump-2               72.33           2      0.00     92.82     95.00     1.852      8.81    0.0    0.0
  XR-Pump-3               31.90           2      0.00     81.28     95.00     0.741      5.88    0.0    0.0
  XR-Pump-4               72.33           2      0.00     92.82     95.00     1.852      8.81    0.0    0.0
  

  Analysis begun on:  Thu Jan  6 02:04:47 2022
  Analysis ended on:  Thu Jan  6 02:04:51 2022
  Total elapsed time: 00:00:04