
  EPA STORM WATER MANAGEMENT MODEL - VERSION 5.1 (Build 5.3.0.dev0)
  --------------------------------------------------------------

  WARNING 04: minimum elevation drop used for Conduit WS02004404WS02004405
  WARNING 03: negative offset ignored for Link YS02001904YS02001907
  
  *********************************************************
  NOTE: The summary statistics displayed in this report are
  based on results found at every computational time step,  
  not just on results from each reporting time step.
  *********************************************************
  
  ****************
  Analysis Options
  ****************
  Flow Units ............... LPS
  Process Models:
    Rainfall/Runoff ........ YES
    RDII ................... NO
    Snowmelt ............... NO
    Groundwater ............ NO
    Flow Routing ........... YES
    Ponding Allowed ........ NO
    Water Quality .......... NO
  Infiltration Method ...... HORTON
  Flow Routing Method ...... DYNWAVE
  Surcharge Method ......... EXTRAN
  Starting Date ............ 08/28/2015 08:00:00
  Ending Date .............. 08/28/2015 15:50:00
  Antecedent Dry Days ...... 8.0
  Report Time Step ......... 00:01:00
  Wet Time Step ............ 00:01:00
  Dry Time Step ............ 00:01:00
  Routing Time Step ........ 5.00 sec
  Variable Time Step ....... YES
  Maximum Trials ........... 8
  Number of Threads ........ 4
  Head Tolerance ........... 0.001500 m
  
  
  **************************        Volume         Depth
  Runoff Quantity Continuity     hectare-m            mm
  **************************     ---------       -------
  Total Precipitation ......         2.737         5.993
  Evaporation Loss .........         0.000         0.000
  Infiltration Loss ........         0.688         1.506
  Surface Runoff ...........         1.163         2.547
  Final Storage ............         0.887         1.941
  Continuity Error (%) .....        -0.018
  
  
  **************************        Volume        Volume
  Flow Routing Continuity        hectare-m      10^6 ltr
  **************************     ---------     ---------
  Dry Weather Inflow .......         0.616         6.165
  Wet Weather Inflow .......         1.163        11.625
  Groundwater Inflow .......         0.000         0.000
  RDII Inflow ..............         0.000         0.000
  External Inflow ..........         0.102         1.024
  External Outflow .........         1.397        13.975
  Flooding Loss ............         0.143         1.428
  Evaporation Loss .........         0.000         0.000
  Exfiltration Loss ........         0.000         0.000
  Initial Stored Volume ....         0.076         0.761
  Final Stored Volume ......         0.423         4.233
  Continuity Error (%) .....        -0.313
  
  
  *************************
  Highest Continuity Errors
  *************************
  Node HS02004842 (28.25%)
  Node YS02001884 (22.37%)
  Node YS02001774 (12.81%)
  Node YSB1171 (6.84%)
  Node HS02004901 (5.40%)
  
  
  ***************************
  Time-Step Critical Elements
  ***************************
  Link WS02006252WS02006251 (84.41%)
  Link 3 (9.75%)
  Link WS02006280WS02006229 (2.04%)
  
  
  ********************************
  Highest Flow Instability Indexes
  ********************************
  Link WS02006113WS02006111 (42)
  Link WS02006111WS02006112 (32)
  Link YS02006558YS02006561 (14)
  Link YS02001629YS02163301 (9)
  Link YS02001644YS02001647 (8)
  
  
  *************************
  Routing Time Step Summary
  *************************
  Minimum Time Step           :     0.21 sec
  Average Time Step           :     0.89 sec
  Maximum Time Step           :     5.00 sec
  Percent in Steady State     :    -0.00
  Average Iterations per Step :     2.86
  Percent Not Converging      :    11.05
  
  
  ***************************
  Subcatchment Runoff Summary
  ***************************
  
  ------------------------------------------------------------------------------------------------------------------------------
                            Total      Total      Total      Total     Imperv       Perv      Total       Total     Peak  Runoff
                           Precip      Runon       Evap      Infil     Runoff     Runoff     Runoff      Runoff   Runoff   Coeff
  Subcatchment                 mm         mm         mm         mm         mm         mm         mm    10^6 ltr      LPS
  ------------------------------------------------------------------------------------------------------------------------------
  sub0                       5.99       0.00       0.00       0.42       4.31       0.00       4.31        0.00     1.60   0.719
  sub1                       5.99       0.00       0.00       0.66       4.08       0.00       4.08        0.03     8.14   0.681
  sub2                       5.99       0.00       0.00       2.22       2.87       0.00       2.87        0.03     7.15   0.479
  sub3                       5.99       0.00       0.00       2.22       2.84       0.00       2.84        0.06    14.58   0.473
  sub4                       5.99       0.00       0.00       0.66       3.94       0.00       3.94        0.08    16.23   0.658
  sub5                       5.99       0.00       0.00       0.42       4.26       0.00       4.26        0.05    14.47   0.711
  sub7                       5.99       0.00       0.00       0.54       4.20       0.00       4.20        0.01     5.17   0.701
  sub8                       5.99       0.00       0.00       0.54       4.19       0.00       4.19        0.03     9.08   0.699
  sub9                       5.99       0.00       0.00       0.54       4.19       0.00       4.19        0.02     6.72   0.699
  sub10                      5.99       0.00       0.00       0.48       4.22       0.00       4.22        0.05    14.48   0.705
  sub11                      5.99       0.00       0.00       0.48       4.24       0.00       4.24        0.05    17.11   0.707
  sub12                      5.99       0.00       0.00       0.78       4.03       0.00       4.03        0.04    14.66   0.672
  sub14                      5.99       0.00       0.00       0.54       4.19       0.00       4.19        0.04    13.13   0.699
  sub15                      5.99       0.00       0.00       1.80       3.22       0.00       3.22        0.06    17.78   0.537
  sub16                      5.99       0.00       0.00       1.98       3.10       0.00       3.10        0.03    12.85   0.517
  sub17                      5.99       0.00       0.00       1.92       3.14       0.00       3.14        0.03    10.35   0.524
  sub22                      5.99       0.00       0.00       2.58       2.63       0.00       2.63        0.17    58.61   0.438
  sub23                      5.99       0.00       0.00       2.22       2.91       0.00       2.91        0.14    49.95   0.485
  sub60                      5.99       0.00       0.00       0.72       2.84       0.00       2.84        0.86    79.26   0.473
  sub61                      5.99       0.00       0.00       1.02       3.03       0.00       3.03        0.94   100.33   0.506
  sub62                      5.99       0.00       0.00       0.48       3.25       0.00       3.25        1.00   102.25   0.543
  sub63                      5.99       0.00       0.00       1.74       2.70       0.00       2.70        0.82    94.01   0.451
  sub64                      5.99       0.00       0.00       0.90       2.71       0.00       2.71        0.82    75.25   0.453
  sub65                      5.99       0.00       0.00       0.78       2.75       0.00       2.75        0.84    76.32   0.458
  sub66                      5.99       0.00       0.00       1.74       2.37       0.00       2.37        0.73    69.14   0.395
  sub67                      5.99       0.00       0.00       0.48       3.57       0.00       3.57        1.10   132.46   0.596
  sub68                      5.99       0.00       0.00       0.84       3.23       0.00       3.23        0.99   111.20   0.538
  sub69                      5.99       0.00       0.00       0.90       3.48       0.00       3.48        0.81   111.68   0.581
  sub70                      5.99       3.55       0.00       3.25       4.28       0.00       4.28        0.98    88.41   0.448
  sub71                      5.99       0.00       0.00       0.48       3.11       0.00       3.11        0.73    71.14   0.519
  sub72                      5.99       0.00       0.00       0.42       2.20       0.00       2.20        0.45    33.50   0.367
  sub73                      5.99       4.16       0.00       3.45       4.36       0.00       4.36        1.02    75.96   0.429
  sub74                      5.99       0.00       0.00       4.49       1.05       0.00       1.05        0.42    62.58   0.175
  
  
  ******************
  Node Depth Summary
  ******************
  
  ---------------------------------------------------------------------------------
                                 Average  Maximum  Maximum  Time of Max    Reported
                                   Depth    Depth      HGL   Occurrence   Max Depth
  Node                 Type       Meters   Meters   Meters  days hr:min      Meters
  ---------------------------------------------------------------------------------
  WS02001211           JUNCTION     0.61     0.67     5.51     0  00:22        0.67
  WS02001212           JUNCTION     0.34     0.39     5.45     0  00:22        0.39
  WS02001213           JUNCTION     0.57     0.62     5.38     0  03:01        0.62
  WS02003069           JUNCTION     0.41     0.47     5.06     0  03:01        0.47
  WS02003072           JUNCTION     0.47     0.54     4.91     0  03:01        0.54
  WS02003073           JUNCTION     0.28     0.32     4.39     0  03:02        0.32
  WS02003060           JUNCTION     0.36     0.42     5.35     0  03:00        0.42
  WS02003066           JUNCTION     0.23     0.27     5.83     0  02:58        0.27
  WS02003059           JUNCTION     0.64     0.69     5.37     0  03:01        0.69
  WS02003067           JUNCTION     0.56     0.66     5.98     0  02:58        0.66
  WS02004401           JUNCTION     0.65     0.78     6.78     0  02:54        0.78
  WS02004402           JUNCTION     0.69     0.81     6.77     0  02:54        0.81
  WS02004403           JUNCTION     0.71     0.82     6.75     0  02:54        0.82
  WS02004404           JUNCTION     0.78     0.90     6.75     0  02:54        0.90
  WS02004406           JUNCTION     0.79     0.90     6.73     0  02:54        0.90
  WS02004409           JUNCTION     0.47     0.60     6.37     0  02:57        0.60
  WS02004410           JUNCTION     0.49     0.61     6.33     0  02:57        0.61
  WS02004411           JUNCTION     0.51     0.63     6.31     0  02:57        0.63
  WS02004412           JUNCTION     0.53     0.64     6.28     0  02:57        0.64
  WS02004413           JUNCTION     0.69     0.80     6.27     0  02:58        0.80
  WS02004405           JUNCTION     0.78     0.89     6.74     0  02:54        0.89
  WS02006109           JUNCTION     0.73     0.86     7.48     0  02:49        0.86
  WS02006110           JUNCTION     0.73     0.85     7.43     0  02:50        0.85
  WS02006111           JUNCTION     0.21     0.26     6.97     0  02:50        0.26
  WS02006112           JUNCTION     0.82     0.96     6.84     0  02:53        0.96
  WS02006113           JUNCTION     0.33     0.41     7.30     0  02:50        0.41
  WS02006115           JUNCTION     0.54     0.67     6.81     0  02:54        0.67
  WS02006116           JUNCTION     0.63     0.75     6.79     0  02:54        0.75
  WS02006230           JUNCTION     0.68     0.86     7.61     0  02:50        0.86
  WS02006231           JUNCTION     0.45     0.56     7.68     0  02:52        0.56
  WS02006232           JUNCTION     0.59     0.69     7.73     0  02:53        0.69
  WS02006234           JUNCTION     0.50     0.61     7.77     0  02:53        0.61
  WS02006235           JUNCTION     0.53     0.64     7.80     0  02:54        0.64
  WS02006238           JUNCTION     0.56     0.67     7.81     0  02:54        0.67
  WS02006240           JUNCTION     0.45     0.55     7.85     0  02:54        0.55
  WS02006242           JUNCTION     0.50     0.61     7.88     0  02:54        0.61
  WS02006243           JUNCTION     0.38     0.48     7.90     0  02:55        0.48
  WS02006245           JUNCTION     0.36     0.45     7.94     0  02:54        0.45
  WS02006247           JUNCTION     0.38     0.47     7.97     0  02:54        0.47
  WS02006248           JUNCTION     0.33     0.41     7.99     0  02:54        0.41
  WS02006249           JUNCTION     0.37     0.44     8.04     0  02:53        0.44
  WS02006239           JUNCTION     0.51     0.62     7.83     0  02:54        0.62
  WS02006251           JUNCTION     0.36     0.42     8.09     0  02:52        0.42
  WS02006252           JUNCTION     0.31     0.35     8.59     0  02:40        0.35
  WS02006253           JUNCTION     0.38     0.45     8.09     0  02:52        0.45
  WS02006256           JUNCTION     0.99     1.15     8.09     0  00:00        1.12
  WS02004138           JUNCTION     0.14     0.17     7.42     0  00:20        0.17
  WS02004407           JUNCTION     0.22     0.27     6.58     0  02:55        0.27
  WS02006228           JUNCTION     0.72     0.88     7.53     0  02:49        0.88
  WS02006229           JUNCTION     0.69     0.86     7.56     0  02:49        0.86
  WS02006280           JUNCTION     0.05     0.15     8.42     0  02:17        0.15
  WS02006284           JUNCTION     0.34     0.49     8.89     0  02:17        0.49
  WS02006287           JUNCTION     0.08     0.22     9.18     0  02:16        0.22
  WSF200               JUNCTION     0.21     0.27     5.51     0  02:58        0.27
  HS02004901           JUNCTION     0.11     0.24    10.06     0  02:14        0.24
  HS02004881           JUNCTION     0.01     0.03     9.05     0  02:16        0.03
  HS02004876           JUNCTION     0.03     0.10     9.13     0  02:14        0.10
  HS02004870           JUNCTION     0.01     0.04     9.33     0  02:17        0.04
  HS02004862           JUNCTION     0.01     0.05     9.43     0  02:17        0.05
  HS02004856           JUNCTION     0.07     0.11     9.53     0  02:17        0.11
  HS02004852           JUNCTION     0.01     0.03     9.54     0  02:18        0.03
  HS02004848           JUNCTION     0.01     0.03     9.63     0  02:16        0.03
  HS02004842           JUNCTION     0.33     0.36     9.63     0  02:16        0.36
  HS02004837           JUNCTION     0.03     0.05     9.63     0  02:16        0.05
  HS02004830           JUNCTION     0.04     0.06     9.53     0  02:16        0.06
  HS02004824           JUNCTION     0.02     0.04     9.44     0  02:19        0.04
  HS02004817           JUNCTION     0.42     0.53     9.38     0  02:17        0.53
  HS02004807           JUNCTION     0.11     0.21     9.38     0  02:17        0.21
  HS02004802           JUNCTION     0.15     0.24     9.37     0  02:17        0.24
  HS02004799           JUNCTION     0.09     0.27     9.48     0  02:15        0.27
  HS02004792           JUNCTION     0.02     0.10     9.63     0  02:14        0.10
  HS02004788           JUNCTION     0.02     0.08     9.98     0  02:15        0.08
  HS02004785           JUNCTION     0.03     0.14    10.04     0  02:15        0.14
  HS02004777           JUNCTION     0.13     0.26    10.06     0  02:15        0.26
  HS02004770           JUNCTION     0.10     0.23    10.06     0  02:14        0.23
  HS02004480           JUNCTION     0.06     0.21     9.45     0  02:16        0.21
  HS02004479           JUNCTION     0.10     0.25     9.45     0  02:15        0.25
  HS02004478           JUNCTION     0.05     0.13     9.36     0  02:16        0.13
  YS02001745           JUNCTION     0.14     0.32     7.83     0  05:32        0.31
  YS02001748           JUNCTION     0.51     0.72     7.79     0  05:07        0.70
  YS02001751           JUNCTION     0.69     0.96     7.84     0  05:10        0.92
  YS02001754           JUNCTION     0.94     1.21     7.82     0  05:03        1.19
  YS02001762           JUNCTION     1.13     1.53     7.93     0  06:31        1.50
  YS02001765           JUNCTION     1.09     1.54     7.99     0  06:31        1.50
  YS02001767           JUNCTION     1.05     1.58     8.07     0  04:09        1.52
  YS02001770           JUNCTION     1.04     1.68     8.18     0  04:09        1.58
  YS02001774           JUNCTION     1.11     1.79     8.21     0  04:09        1.68
  YS02001779           JUNCTION     0.87     1.54     8.23     0  04:09        1.42
  YS02001882           JUNCTION     0.28     0.47     7.18     0  02:48        0.47
  YS02001884           JUNCTION     0.38     0.57     7.18     0  02:48        0.57
  YS02001759           JUNCTION     1.17     1.52     7.88     0  05:32        1.47
  YS02001887           JUNCTION     0.45     0.65     7.18     0  02:48        0.65
  YS02001890           JUNCTION     0.48     0.68     7.18     0  02:48        0.68
  YS02001898           JUNCTION     0.25     0.43     7.17     0  02:49        0.43
  YS02001901           JUNCTION     0.37     0.56     7.17     0  02:49        0.56
  YS02001904           JUNCTION     0.35     0.53     7.16     0  02:49        0.53
  YS02001907           JUNCTION     0.68     0.88     7.16     0  02:50        0.88
  YS02001910           JUNCTION     0.47     0.66     7.16     0  02:50        0.66
  YS02001915           JUNCTION     0.27     0.45     7.16     0  02:50        0.45
  YS02001918           JUNCTION     0.08     0.10     7.16     0  03:03        0.10
  YS02001619           JUNCTION     0.65     0.85     7.78     0  05:05        0.85
  YS02001629           JUNCTION     1.00     1.26     7.81     0  04:59        1.25
  YS02001641           JUNCTION     1.10     1.41     7.84     0  04:41        1.39
  YS02001644           JUNCTION     1.11     1.41     7.84     0  04:41        1.38
  YS02001652           JUNCTION     0.95     1.22     7.81     0  05:11        1.20
  YS02001655           JUNCTION     0.72     0.97     7.82     0  05:14        0.97
  YS02001920           JUNCTION     0.17     0.21     7.22     0  03:02        0.21
  YS02001923           JUNCTION     0.06     0.09     7.35     0  03:01        0.09
  YS02001926           JUNCTION     0.14     0.18     7.62     0  03:01        0.18
  YS02001929           JUNCTION     0.07     0.09     7.78     0  03:01        0.09
  YS02001658           JUNCTION     0.45     0.66     7.80     0  05:06        0.66
  YS02001661           JUNCTION     0.24     0.39     7.80     0  05:05        0.38
  YS02001664           JUNCTION     0.07     0.12     8.04     0  02:41        0.12
  YS02001622           JUNCTION     0.67     0.87     7.77     0  04:59        0.86
  YS02001633           JUNCTION     1.09     1.36     7.82     0  05:03        1.35
  YS02001649           JUNCTION     1.14     1.43     7.82     0  05:03        1.41
  YS02001757           JUNCTION     1.27     1.56     7.82     0  05:32        1.53
  YS02001895           JUNCTION     0.25     0.43     7.17     0  02:49        0.43
  YS02001625           JUNCTION     0.95     1.17     7.77     0  05:00        1.16
  YS02163301           JUNCTION     1.03     1.29     7.81     0  05:04        1.28
  YS02163601           JUNCTION     1.14     1.44     7.83     0  05:03        1.42
  YS02164001           JUNCTION     1.08     1.38     7.84     0  04:41        1.37
  YS02001647           JUNCTION     0.94     1.23     7.84     0  04:41        1.20
  YSB1154              JUNCTION     0.23     0.39     9.45     0  02:16        0.39
  YSB6556              JUNCTION     0.13     0.28     9.45     0  02:15        0.28
  YSB1174              JUNCTION     0.19     0.34     9.45     0  02:16        0.34
  YSB1171              JUNCTION     0.38     0.55     9.45     0  02:15        0.55
  YS02006553           JUNCTION     0.68     0.88     7.16     0  02:50        0.88
  YS02006561           JUNCTION     0.14     0.23     6.89     0  02:49        0.23
  YS02006556           JUNCTION     0.66     0.85     7.16     0  02:49        0.85
  YS02006558           JUNCTION     0.70     0.89     7.16     0  02:49        0.89
  YS02001783           JUNCTION     0.24     0.41     6.55     0  02:49        0.41
  YS02001784           JUNCTION     0.27     0.44     6.51     0  02:50        0.44
  YS02001786           JUNCTION     0.23     0.37     6.40     0  02:50        0.37
  YS02001788           JUNCTION     0.17     0.28     6.26     0  02:50        0.28
  YS02001790           JUNCTION     0.20     0.34     5.99     0  02:51        0.34
  YS02001791           JUNCTION     0.13     0.22     5.69     0  02:51        0.22
  YS02001793           JUNCTION     0.08     0.14     4.97     0  02:29        0.14
  WS02004139           JUNCTION     0.55     0.61     5.52     0  00:22        0.61
  WSC                  OUTFALL      0.28     0.32     0.99     0  03:02        0.32
  3                    OUTFALL      0.05     0.13     6.13     0  00:00        0.12
  4                    OUTFALL      0.00     0.00     7.00     0  00:00        0.00
  5                    OUTFALL      0.00     0.00     5.00     0  00:00        0.00
  JK-storage           STORAGE      0.27     3.00     3.80     0  00:00        2.70
  CC-storage           STORAGE      0.53     0.73     7.73     0  05:27        0.73
  XR-storage           STORAGE      7.52     7.72     5.72     0  02:34        7.72
  
  
  *******************
  Node Inflow Summary
  *******************
  
  -------------------------------------------------------------------------------------------------
                                  Maximum  Maximum                  Lateral       Total        Flow
                                  Lateral    Total  Time of Max      Inflow      Inflow     Balance
                                   Inflow   Inflow   Occurrence      Volume      Volume       Error
  Node                 Type           LPS      LPS  days hr:min    10^6 ltr    10^6 ltr     Percent
  -------------------------------------------------------------------------------------------------
  WS02001211           JUNCTION      7.35   279.51     0  00:20       0.207        5.51       0.584
  WS02001212           JUNCTION      0.00   270.94     0  00:21           0        5.48       0.291
  WS02001213           JUNCTION      0.00   270.44     0  00:22           0        5.46       0.377
  WS02003069           JUNCTION      0.32   653.22     0  03:00     0.00902        12.5       0.209
  WS02003072           JUNCTION      0.00   653.21     0  03:01           0        12.5       0.262
  WS02003073           JUNCTION      1.82   655.04     0  03:01      0.0514        12.5       0.290
  WS02003060           JUNCTION     16.53   652.89     0  03:00       0.466        12.5       0.199
  WS02003066           JUNCTION      0.00   440.46     0  02:58           0        6.67       0.063
  WS02003059           JUNCTION      0.00   266.59     0  00:24           0        5.45       0.678
  WS02003067           JUNCTION      0.00   440.45     0  02:58           0        6.68       0.135
  WS02004401           JUNCTION      0.00   442.06     0  02:52           0         6.9       0.301
  WS02004402           JUNCTION      0.00   441.80     0  02:53           0        6.88       0.285
  WS02004403           JUNCTION      0.00   441.66     0  02:53           0        6.86       0.260
  WS02004404           JUNCTION      0.16   441.75     0  02:54     0.00457        6.85       0.197
  WS02004406           JUNCTION      0.00   441.75     0  02:54           0        6.82       0.481
  WS02004409           JUNCTION      0.00   441.72     0  02:55           0        6.78       0.228
  WS02004410           JUNCTION      0.00   441.22     0  02:55           0        6.76       0.259
  WS02004411           JUNCTION      0.00   440.85     0  02:56           0        6.75       0.267
  WS02004412           JUNCTION      0.00   440.62     0  02:57           0        6.73       0.290
  WS02004413           JUNCTION      0.00   440.49     0  02:57           0        6.71       0.433
  WS02004405           JUNCTION      0.04   441.77     0  02:54     0.00107        6.84       0.294
  WS02006109           JUNCTION      1.23   440.95     0  02:49      0.0347           7       0.309
  WS02006110           JUNCTION      0.00   440.95     0  02:49           0        6.98       0.275
  WS02006111           JUNCTION      0.00   452.89     0  02:50           0        6.95       0.060
  WS02006112           JUNCTION     10.35   445.37     0  02:50      0.0269        6.97       0.407
  WS02006113           JUNCTION      0.00   441.02     0  02:50           0        6.96       0.133
  WS02006115           JUNCTION      0.00   443.38     0  02:51           0        6.94       0.277
  WS02006116           JUNCTION      0.00   442.53     0  02:52           0        6.92       0.264
  WS02006230           JUNCTION     10.28   331.12     0  03:05        0.29        6.08       0.239
  WS02006231           JUNCTION      0.00   320.29     0  03:01           0         5.8       0.142
  WS02006232           JUNCTION      0.00   320.06     0  03:01           0        5.82       0.269
  WS02006234           JUNCTION      0.00   319.77     0  03:00           0        5.82       0.127
  WS02006235           JUNCTION      0.00   319.62     0  03:00           0        5.86       0.176
  WS02006238           JUNCTION      0.00   220.57     0  02:57           0         3.9       0.188
  WS02006240           JUNCTION      0.00   220.15     0  02:56           0        3.89       0.288
  WS02006242           JUNCTION      0.00   220.04     0  02:55           0         3.9       0.354
  WS02006243           JUNCTION      0.00   220.12     0  02:53           0         3.9       0.171
  WS02006245           JUNCTION      0.00   221.11     0  02:44           0         3.9       0.203
  WS02006247           JUNCTION      0.00   222.79     0  02:44           0        3.91       0.172
  WS02006248           JUNCTION      0.00   223.80     0  02:44           0        3.91       0.117
  WS02006249           JUNCTION      0.00   224.82     0  02:43           0        3.92       0.245
  WS02006239           JUNCTION      0.00   220.36     0  02:57           0        3.89       0.279
  WS02006251           JUNCTION      0.08   227.19     0  02:40     0.00217        3.93       0.223
  WS02006252           JUNCTION      0.00   200.00     0  02:40           0        3.78       0.011
  WS02006253           JUNCTION      1.60    45.29     0  02:16     0.00349       0.152       2.524
  WS02006256           JUNCTION      0.00   300.00     0  00:00           0        3.49       0.079
  WS02004138           JUNCTION      0.00   284.79     0  00:20           0        5.33       0.061
  WS02004407           JUNCTION      0.00   441.73     0  02:54           0        6.79       0.104
  WS02006228           JUNCTION      0.00   439.71     0  02:49           0        6.98       0.213
  WS02006229           JUNCTION      0.00   439.72     0  02:49           0        6.99       0.182
  WS02006280           JUNCTION      0.00   230.90     0  02:17           0       0.922       0.007
  WS02006284           JUNCTION      0.10   230.89     0  02:17      0.0027       0.923       0.114
  WS02006287           JUNCTION      0.00   230.73     0  02:16           0       0.921       0.079
  WSF200               JUNCTION      0.00   440.45     0  02:58           0        6.67       0.061
  HS02004901           JUNCTION     12.85    12.85     0  02:09      0.0324      0.0325       5.705
  HS02004881           JUNCTION      5.17    44.08     0  02:16      0.0141       0.149       0.190
  HS02004876           JUNCTION      8.14    39.26     0  02:16      0.0271       0.135       0.391
  HS02004870           JUNCTION      9.08    31.31     0  02:16      0.0268       0.108       0.098
  HS02004862           JUNCTION      7.35    22.88     0  02:17      0.0324      0.0818       0.207
  HS02004856           JUNCTION      6.72    15.60     0  02:16      0.0201      0.0509       2.911
  HS02004852           JUNCTION      0.00     9.33     0  02:16           0      0.0308       0.164
  HS02004848           JUNCTION     14.58    14.58     0  02:19      0.0638      0.0638       0.068
  HS02004842           JUNCTION      0.00     5.80     0  02:28           0       0.046      39.375
  HS02004837           JUNCTION     20.83    25.68     0  02:15       0.226       0.259       0.315
  HS02004830           JUNCTION      0.15    25.81     0  02:16     0.00423       0.249       0.498
  HS02004824           JUNCTION     16.28    41.90     0  02:19      0.0836       0.331       0.163
  HS02004817           JUNCTION      0.60    42.49     0  02:19      0.0169       0.348       5.033
  HS02004807           JUNCTION     17.11    57.99     0  02:18      0.0492        0.38       1.123
  HS02004802           JUNCTION      0.00    58.34     0  02:19           0       0.376       1.092
  HS02004799           JUNCTION     13.13   147.42     0  02:14      0.0398       0.481       0.473
  HS02004792           JUNCTION     58.89   134.62     0  02:14       0.174       0.441       0.093
  HS02004788           JUNCTION     19.45    78.36     0  02:15       0.102       0.269       0.146
  HS02004785           JUNCTION      0.15    59.36     0  02:14     0.00423       0.168       0.288
  HS02004777           JUNCTION      0.03    59.86     0  02:13    0.000846       0.168       3.169
  HS02004770           JUNCTION     49.95    61.25     0  02:11       0.139       0.169       1.862
  HS02004480           JUNCTION      0.00   173.70     0  02:16           0       0.561       0.131
  HS02004479           JUNCTION      0.00    26.95     0  02:17           0      0.0929       0.791
  HS02004478           JUNCTION      0.00   230.73     0  02:17           0       0.922       0.067
  YS02001745           JUNCTION     79.27   124.67     0  05:23        0.86       0.955       0.135
  YS02001748           JUNCTION      0.04   206.29     0  05:09     0.00127        1.09       0.833
  YS02001751           JUNCTION      0.01   232.11     0  05:08     0.00031        1.01       1.692
  YS02001754           JUNCTION      0.26   108.91     0  05:13     0.00733       0.876       2.058
  YS02001762           JUNCTION      0.00   124.07     0  02:36           0       0.963       2.207
  YS02001765           JUNCTION      0.00   122.19     0  02:36           0       0.964       2.543
  YS02001767           JUNCTION      0.54   122.70     0  02:43      0.0151       0.982       3.670
  YS02001770           JUNCTION    102.41   117.31     0  02:44           1        1.09       2.678
  YS02001774           JUNCTION      0.00    52.94     0  04:09           0       0.195      14.695
  YS02001779           JUNCTION      0.01    52.59     0  04:09    0.000141      0.0884      10.987
  YS02001882           JUNCTION      0.00     4.64     0  02:07           0     0.00555      43.809
  YS02001884           JUNCTION      0.00    13.25     0  02:07           0      0.0219      28.823
  YS02001759           JUNCTION    100.37   207.50     0  02:43       0.936        1.85       1.238
  YS02001887           JUNCTION    132.91   132.91     0  02:39        1.12        1.13       0.642
  YS02001890           JUNCTION      0.00   132.87     0  02:38           0         1.1       0.720
  YS02001898           JUNCTION      0.00   131.89     0  02:43           0        1.09       0.203
  YS02001901           JUNCTION      0.00   131.78     0  02:44           0        1.09       0.512
  YS02001904           JUNCTION      0.00   130.79     0  02:45           0        1.09       0.476
  YS02001907           JUNCTION      0.00   236.52     0  02:51           0        2.33       0.956
  YS02001910           JUNCTION      0.00   107.82     0  02:58           0        1.26       0.818
  YS02001915           JUNCTION     71.16   106.85     0  02:59       0.735        1.26       0.365
  YS02001918           JUNCTION      0.00    36.38     0  03:02           0       0.526       0.219
  YS02001619           JUNCTION     69.14    69.14     0  02:53       0.725       0.729       1.135
  YS02001629           JUNCTION      0.00   133.19     0  05:00           0       0.725       3.071
  YS02001641           JUNCTION      0.00   151.58     0  02:57           0        1.42       1.496
  YS02001644           JUNCTION     75.28   230.75     0  02:55       0.825        2.21       1.186
  YS02001652           JUNCTION      0.00   117.10     0  02:41           0       0.827       2.310
  YS02001655           JUNCTION      0.15   206.66     0  04:45     0.00434       0.933       1.983
  YS02001920           JUNCTION      2.87    36.39     0  03:01      0.0809       0.528       0.393
  YS02001923           JUNCTION      0.04    33.53     0  03:01     0.00106       0.448       0.069
  YS02001926           JUNCTION      0.05    33.54     0  03:01     0.00147       0.449       0.491
  YS02001929           JUNCTION     33.50    33.50     0  03:01       0.448       0.448       0.067
  YS02001658           JUNCTION      0.00   213.16     0  04:38           0        1.13       0.827
  YS02001661           JUNCTION      0.00   173.96     0  04:44           0        1.02       0.204
  YS02001664           JUNCTION     94.01    94.01     0  02:41       0.817       0.817       0.014
  YS02001622           JUNCTION      0.00    82.42     0  04:39           0       0.791       2.976
  YS02001633           JUNCTION     76.52   159.07     0  02:54        0.85        1.47       2.218
  YS02001649           JUNCTION      0.00   317.63     0  02:49           0        2.94       1.265
  YS02001757           JUNCTION      0.00   583.66     0  02:57           0        5.51       1.695
  YS02001895           JUNCTION      0.00   131.88     0  02:43           0        1.09       0.347
  YS02001625           JUNCTION      0.00   135.36     0  05:00           0       0.829       4.652
  YS02163301           JUNCTION      0.00    90.07     0  02:57           0        0.65       3.759
  YS02163601           JUNCTION      0.11   150.27     0  02:57      0.0031        1.44       2.140
  YS02164001           JUNCTION      0.00   146.94     0  02:56           0        1.42       1.415
  YS02001647           JUNCTION      0.00   234.35     0  02:55           0        2.17       1.066
  YSB1154              JUNCTION     14.47    14.47     0  02:13      0.0483      0.0497       2.994
  YSB6556              JUNCTION      0.00    14.37     0  02:15           0      0.0507       2.520
  YSB1174              JUNCTION     14.66    14.66     0  02:08      0.0352      0.0362       3.674
  YSB1171              JUNCTION      0.00    26.92     0  02:15           0      0.0924       7.341
  YS02006553           JUNCTION      0.00   236.57     0  02:52           0        2.32       0.620
  YS02006561           JUNCTION      0.00   351.40     0  02:49           0        3.29       0.020
  YS02006556           JUNCTION      0.00   236.66     0  02:52           0        2.33       0.447
  YS02006558           JUNCTION    112.08   347.40     0  02:49        1.02        3.32       0.137
  YS02001783           JUNCTION      0.00   347.36     0  02:49           0        3.29       0.047
  YS02001784           JUNCTION      1.06   348.43     0  02:50      0.0299        3.31       0.078
  YS02001786           JUNCTION      0.06   348.46     0  02:50     0.00159        3.31       0.076
  YS02001788           JUNCTION      0.07   348.51     0  02:50       0.002        3.31       0.043
  YS02001790           JUNCTION      0.15   348.66     0  02:50     0.00437        3.32       0.054
  YS02001791           JUNCTION      0.00   348.65     0  02:51           0        3.31       0.027
  YS02001793           JUNCTION      0.00   348.65     0  02:51           0        3.31       0.010
  WS02004139           JUNCTION      0.32   284.51     0  00:20     0.00905        5.33       0.573
  WSC                  OUTFALL       0.00   655.02     0  03:02           0        12.5       0.000
  3                    OUTFALL       0.00   250.55     0  00:00           0         1.5       0.000
  4                    OUTFALL       0.00     0.00     0  00:00           0           0       0.000 ltr
  5                    OUTFALL       0.00     0.00     0  00:00           0           0       0.000 ltr
  JK-storage           STORAGE       0.00   348.65     0  02:51           0        3.46      -0.829
  CC-storage           STORAGE       0.00   583.85     0  02:57           0         5.4       0.647
  XR-storage           STORAGE     329.03   329.03     0  02:48        7.08        7.68       0.000
  
  
  **********************
  Node Surcharge Summary
  **********************
  
  Surcharging occurs when water rises above the top of the highest conduit.
  ---------------------------------------------------------------------
                                               Max. Height   Min. Depth
                                   Hours       Above Crown    Below Rim
  Node                 Type      Surcharged         Meters       Meters
  ---------------------------------------------------------------------
  WS02006109           JUNCTION        0.53          0.044        1.776
  WS02006228           JUNCTION        0.50          0.049        2.151
  YS02001754           JUNCTION        2.74          0.165        0.985
  YS02001762           JUNCTION        5.21          0.532        0.618
  YS02001765           JUNCTION        5.13          0.543        0.557
  YS02001767           JUNCTION        5.01          0.582        0.448
  YS02001770           JUNCTION        4.55          0.653        0.267
  YS02001774           JUNCTION        5.19          0.786        0.264
  YS02001779           JUNCTION        1.95          0.541        0.139
  YS02001759           JUNCTION        5.26          0.519        0.691
  YS02001641           JUNCTION        5.16          0.407        0.693
  YS02001644           JUNCTION        5.17          0.410        0.510
  YS02001652           JUNCTION        3.37          0.186        0.944
  YS02001633           JUNCTION        5.09          0.343        0.717
  YS02001649           JUNCTION        5.23          0.432        0.618
  YS02001757           JUNCTION        5.38          0.564        0.646
  YS02001625           JUNCTION        3.83          0.170        0.610
  YS02163301           JUNCTION        4.91          0.293        0.737
  YS02163601           JUNCTION        5.22          0.436        0.644
  YS02164001           JUNCTION        5.13          0.384        0.716
  YS02001647           JUNCTION        3.69          0.230        0.670
  
  
  *********************
  Node Flooding Summary
  *********************
  
  Flooding refers to all water that overflows a node, whether it ponds or not.
  --------------------------------------------------------------------------
                                                             Total   Maximum
                                 Maximum   Time of Max       Flood    Ponded
                        Hours       Rate    Occurrence      Volume     Depth
  Node                 Flooded       LPS   days hr:min    10^6 ltr    Meters
  --------------------------------------------------------------------------
  XR-storage              5.25    139.03      0  02:48       1.428     0.000
  
  
  **********************
  Storage Volume Summary
  **********************
  
  --------------------------------------------------------------------------------------------------
                         Average     Avg  Evap Exfil       Maximum     Max    Time of Max    Maximum
                          Volume    Pcnt  Pcnt  Pcnt        Volume    Pcnt     Occurrence    Outflow
  Storage Unit           1000 m3    Full  Loss  Loss       1000 m3    Full    days hr:min        LPS
  --------------------------------------------------------------------------------------------------
  JK-storage               0.014       5     0     0         0.151      52       0  00:00     300.00
  CC-storage               1.477       9     0     0         2.043      13       0  05:27     200.00
  XR-storage               0.902      97     0     0         0.926     100       0  02:34     284.79
  
  
  ***********************
  Outfall Loading Summary
  ***********************
  
  -----------------------------------------------------------
                         Flow       Avg       Max       Total
                         Freq      Flow      Flow      Volume
  Outfall Node           Pcnt       LPS       LPS    10^6 ltr
  -----------------------------------------------------------
  WSC                   99.99    513.07    655.02      12.476
  3                     65.52    103.98    250.55       1.499
  4                      0.00      0.00      0.00       0.000
  5                      0.00      0.00      0.00       0.000
  -----------------------------------------------------------
  System                41.38    617.05    855.48      13.975
  
  
  ********************
  Link Flow Summary
  ********************
  
  -----------------------------------------------------------------------------
                                 Maximum  Time of Max   Maximum    Max/    Max/
                                  |Flow|   Occurrence   |Veloc|    Full    Full
  Link                 Type          LPS  days hr:min     m/sec    Flow   Depth
  -----------------------------------------------------------------------------
  WS02003066WSF200     CONDUIT    440.45     0  02:58      2.61    0.07    0.21
  WS02006287WS02006284 CONDUIT    230.79     0  02:17      1.68    0.11    0.23
  WS02006284WS02006280 CONDUIT    230.90     0  02:17      1.93    0.10    0.21
  WS02006280WS02006229 CONDUIT    230.91     0  02:17      3.10    0.05    0.15
  WS02006229WS02006228 CONDUIT    439.71     0  02:49      0.87    1.46    1.00
  WS02006256WS02006235 CONDUIT    166.25     0  00:01      2.58    1.76    1.00
  WS02006253WS02006251 CONDUIT     45.25     0  02:16      0.51    0.14    0.62
  WS02006252WS02006251 CONDUIT    200.33     0  02:40      1.97    0.74    0.76
  WS02006251WS02006249 CONDUIT    224.82     0  02:43      0.95    0.65    0.62
  WS02006249WS02006248 CONDUIT    223.80     0  02:44      1.02    1.23    0.59
  WS02006248WS02006247 CONDUIT    222.79     0  02:44      0.98    0.48    0.62
  WS02006247WS02006245 CONDUIT    221.11     0  02:44      0.93    1.75    0.65
  WS02006245WS02006243 CONDUIT    220.12     0  02:53      0.94    0.65    0.66
  WS02006243WS02006242 CONDUIT    220.04     0  02:55      0.79    0.47    0.76
  WS02006242WS02006240 CONDUIT    220.15     0  02:56      0.71    0.87    0.82
  WS02006240WS02006239 CONDUIT    220.36     0  02:57      0.75    0.69    0.81
  WS02006239WS02006238 CONDUIT    220.57     0  02:57      0.67    0.71    0.90
  WS02006238WS02006235 CONDUIT    220.69     0  02:58      1.25    0.49    0.93
  WS02006235WS02006234 CONDUIT    319.77     0  03:00      0.94    3.37    0.87
  WS02006234WS02006232 CONDUIT    320.06     0  03:01      1.13    0.65    0.93
  WS02006232WS02006231 CONDUIT    320.29     0  03:01      0.94    0.67    0.89
  WS02006231WS02006230 CONDUIT    320.84     0  03:05      1.29    4.87    0.75
  WS02006230WS02006229 CONDUIT    332.02     0  03:04      0.86    7.39    1.00
  WS02006228WS02006109 CONDUIT    439.72     0  02:49      0.87    1.92    1.00
  WS02006116WS02004401 CONDUIT    442.06     0  02:52      0.73    0.61    0.76
  WS02006115WS02006116 CONDUIT    442.53     0  02:52      0.79    0.57    0.68
  WS02006113WS02006111 CONDUIT    452.89     0  02:50      2.29    0.54    0.42
  WS02006112WS02006115 CONDUIT    443.38     0  02:51      0.65    0.26    0.81
  WS02006111WS02006112 CONDUIT    442.26     0  02:50      1.32    0.21    0.66
  WS02006110WS02006113 CONDUIT    441.02     0  02:50      1.08    0.40    0.75
  WS02006109WS02006110 CONDUIT    440.95     0  02:49      0.89    0.85    0.96
  WS02004411WS02004412 CONDUIT    440.62     0  02:57      0.84    0.63    0.63
  WS02004401WS02004402 CONDUIT    441.80     0  02:53      0.77    0.53    0.79
  WS02004413WS02003067 CONDUIT    440.45     0  02:58      1.00    0.19    0.55
  WS02004412WS02004413 CONDUIT    440.49     0  02:57      0.73    0.30    0.72
  WS02004410WS02004411 CONDUIT    440.85     0  02:56      0.86    0.60    0.62
  WS02004409WS02004410 CONDUIT    441.22     0  02:55      0.89    0.57    0.61
  WS02004407WS02004409 CONDUIT    441.72     0  02:55      1.37    0.16    0.43
  WS02004406WS02004407 CONDUIT    441.73     0  02:54      0.93    0.20    0.58
  WS02004405WS02004406 CONDUIT    441.75     0  02:54      0.66    0.87    0.90
  WS02004404WS02004405 CONDUIT    441.73     0  02:54      0.84    4.33    0.90
  WS02004403WS02004404 CONDUIT    441.59     0  02:54      0.74    0.32    0.86
  WS02004402WS02004403 CONDUIT    441.66     0  02:53      0.75    0.63    0.82
  WS02004139WS02001211 CONDUIT    272.16     0  00:20      0.53    0.34    0.49
  WS02004138WS02004139 CONDUIT    284.18     0  00:20      2.39    0.06    0.36
  WS02003067WS02003066 CONDUIT    440.46     0  02:58      1.08    0.14    0.39
  WS02001213WS02003059 CONDUIT    266.59     0  00:24      0.57    0.44    0.64
  WS02001212WS02001213 CONDUIT    270.44     0  00:22      1.16    0.42    0.34
  WS02001211WS02001212 CONDUIT    270.94     0  00:21      0.64    0.21    0.53
  WS02003072WS02003073 CONDUIT    653.22     0  03:01      1.52    1.41    0.41
  WS02003069WS02003072 CONDUIT    653.21     0  03:01      1.44    0.31    0.42
  WS02003060WS02003069 CONDUIT    652.90     0  03:00      1.71    0.26    0.37
  WS02003059WS02003060 CONDUIT    264.92     0  00:25      0.78    0.17    0.55
  HS02004901HS02004770 CONDUIT     11.75     0  02:14      0.05    0.04    0.33
  HS02004876HS02004881 CONDUIT     39.36     0  02:16      0.61    0.42    0.09
  HS02004870HS02004876 CONDUIT     31.29     0  02:17      0.43    0.02    0.10
  HS02004842HS02004848 CONDUIT      5.80     0  02:28      0.03    0.00    0.28
  HS02004837HS02004842 CONDUIT      6.02     0  02:29      0.41    0.00    0.29
  HS02004830HS02004837 CONDUIT     25.66     0  02:16      0.46    0.03    0.08
  HS02004824HS02004830 CONDUIT     25.81     0  02:17      0.50    0.03    0.07
  HS02004817HS02004824 CONDUIT     41.89     0  02:19      0.17    0.02    0.41
  HS02004770HS02004777 CONDUIT     59.83     0  02:13      0.25    0.11    0.35
  HS02004799HS02004480 CONDUIT    147.17     0  02:15      0.63    0.19    0.33
  HS02004792HS02004799 CONDUIT    134.54     0  02:14      0.73    0.08    0.27
  HS02004788HS02004792 CONDUIT     78.27     0  02:15      0.87    0.05    0.13
  HS02004785HS02004788 CONDUIT     59.26     0  02:15      0.55    0.45    0.16
  HS02004777HS02004785 CONDUIT     59.21     0  02:14      0.30    0.07    0.28
  HS02004480HS02004478 CONDUIT    173.65     0  02:16      1.01    0.73    0.25
  HS02004479HS02004480 CONDUIT     27.20     0  02:17      0.15    0.03    0.32
  HS02004862HS02004870 CONDUIT     22.83     0  02:17      0.49    0.02    0.07
  HS02004848HS02004852 CONDUIT      9.33     0  02:16      0.33    0.01    0.04
  HS02004856HS02004862 CONDUIT     15.56     0  02:17      0.36    0.02    0.06
  HS02004852HS02004856 CONDUIT      9.28     0  02:18      0.14    0.01    0.10
  HS02004802HS02004478 CONDUIT     58.82     0  02:20      0.32    0.05    0.27
  HS02004478WS02006287 CONDUIT    230.73     0  02:16      1.38    0.06    0.19
  HS02004817HS02004807 CONDUIT     43.15     0  02:21      0.12    0.03    0.53
  HS02004807HS02004802 CONDUIT     58.34     0  02:19      0.27    0.11    0.32
  YS02001759YS02001757 CONDUIT    211.35     0  02:36      0.27    0.15    1.00
  YS02001762YS02001759 CONDUIT    108.06     0  02:36      0.17    0.12    1.00
  YS02001765YS02001762 CONDUIT    124.07     0  02:36      0.23    0.12    1.00
  YS02001770YS02001767 CONDUIT    122.16     0  02:43      0.35    0.48    1.00
  YS02001774YS02001770 CONDUIT     52.94     0  04:09      0.14    0.03    1.00
  YS02001779YS02001774 CONDUIT     52.58     0  04:09      0.09    0.03    1.00
  YS02001649YS02001757 CONDUIT    319.07     0  02:48      0.41    0.19    1.00
  YS02001767YS02001765 CONDUIT    122.19     0  02:36      0.26    0.15    1.00
  YS02006561YS02001783 CONDUIT    347.36     0  02:49      1.84    0.18    0.40
  YS02001783YS02001784 CONDUIT    347.37     0  02:50      1.27    0.48    0.53
  YS02001784YS02001785 CONDUIT    348.40     0  02:50      1.36    0.81    0.51
  YS02001788YS02001790 CONDUIT    348.51     0  02:50      1.92    0.26    0.39
  YS02001790YS02001791 CONDUIT    348.65     0  02:51      2.20    0.38    0.35
  YS02001791YS02001793 CONDUIT    348.65     0  02:51      4.53    0.15    0.21
  YS02001910YS02001907 CONDUIT    108.04     0  03:01      0.49    0.06    0.76
  YS02001786YS02001788 CONDUIT    348.44     0  02:50      1.80    0.67    0.41
  YS02001915YS02001910 CONDUIT    107.82     0  02:58      0.44    0.05    0.55
  YS02001918YS02001915 CONDUIT     36.36     0  03:03      0.44    0.02    0.27
  YS02001923YS02001920 CONDUIT     33.52     0  03:01      0.47    0.02    0.15
  YS02001926YS02001923 CONDUIT     33.49     0  03:01      0.51    0.05    0.14
  YS02001929YS02001926 CONDUIT     33.49     0  03:01      0.54    0.02    0.13
  YS02001920YS02001918 CONDUIT     36.38     0  03:02      0.48    0.04    0.15
  YS02001629YS02163301 CONDUIT     90.07     0  02:57      0.12    0.11    1.00
  YS02001619YS02001622 CONDUIT     82.42     0  04:39      0.69    0.12    0.85
  YS02001622YS02001625 CONDUIT    135.36     0  05:00      0.27    0.07    0.93
  YS02001625YS02001629 CONDUIT    133.19     0  05:00      0.27    0.06    0.94
  YS02163301YS02001633 CONDUIT     82.63     0  02:54      0.11    0.08    1.00
  YS02163601YS02164001 CONDUIT    146.94     0  02:56      0.19    0.13    1.00
  YS02164001YS02001641 CONDUIT    151.58     0  02:57      0.19    0.21    1.00
  YS02001641YS02001644 CONDUIT    155.47     0  02:55      0.20    0.50    1.00
  YS02001647YS02001649 CONDUIT    244.81     0  02:58      0.32    0.13    1.00
  YS02006553YS02006556 CONDUIT    236.66     0  02:52      0.34    0.20    0.84
  YS02006556YS02006558 CONDUIT    236.67     0  02:53      0.33    0.19    0.87
  YSB6556YSB1171       CONDUIT     14.70     0  02:18      0.06    0.02    0.59
  YS02001907YS02006553 CONDUIT    236.57     0  02:52      0.27    0.28    0.96
  YS02006558YS02006561 CONDUIT    351.40     0  02:49      2.40    0.78    0.52
  YS02001633YS02163601 CONDUIT    150.16     0  02:57      0.19    0.16    1.00
  YS02001644YS02001647 CONDUIT    234.35     0  02:55      0.30    0.14    1.00
  YS02001745YS02001748 CONDUIT    169.41     0  05:09      1.43    0.07    0.44
  YS02001748YS02001751 CONDUIT    219.07     0  05:08      1.12    0.11    0.80
  YS02001751YS02001754 CONDUIT    108.65     0  05:13      1.00    0.05    0.98
  YS02001754YS02001757 CONDUIT    111.42     0  05:06      0.33    0.04    1.00
  YS02001882YS02001884 CONDUIT      4.64     0  02:07      0.06    0.01    0.49
  YS02001884YS02001887 CONDUIT     13.25     0  02:07      0.07    0.02    0.58
  YS02001890YS02001895 CONDUIT    131.88     0  02:43      0.30    0.06    0.55
  YS02001895YS02001898 CONDUIT    131.89     0  02:43      0.51    0.23    0.41
  YS02001898YS02001901 CONDUIT    131.78     0  02:44      0.35    0.09    0.49
  YS02001901YS02001904 CONDUIT    130.79     0  02:45      0.30    0.20    0.54
  YS02001904YS02001907 CONDUIT    131.29     0  02:44      0.22    0.05    0.70
  YS02001887YS02001890 CONDUIT    132.87     0  02:38      0.26    0.23    0.64
  YS02001652YS02001649 CONDUIT    119.50     0  02:42      0.35    0.06    1.00
  YS02001655YS02001652 CONDUIT    117.10     0  02:41      1.08    0.06    0.99
  YS02001658YS02001655 CONDUIT    190.71     0  04:28      1.29    0.08    0.80
  YS02001661YS02001658 CONDUIT    213.16     0  04:38      1.49    0.08    0.45
  YS02001664YS02001661 CONDUIT     94.01     0  02:41      1.16    0.03    0.23
  YSB1154YSB6556       CONDUIT     14.37     0  02:15      0.19    0.03    0.48
  YSB1174YSB1171       CONDUIT     13.48     0  02:11      0.06    0.02    0.60
  YSB1171HS02004479    CONDUIT     26.95     0  02:17      0.54    0.02    0.46
  HS02004881HS02006253 CONDUIT     44.08     0  02:16      1.75    0.01    0.09
  YS02001793JiankangQianchi CONDUIT    348.65     0  02:51     13.02    0.03    0.56
  YS02001757CaochengTiaoxuchi CONDUIT    583.85     0  02:57      1.16    0.26    0.87
  WSF200WS02003060     CONDUIT    440.44     0  02:58      1.63    0.10    0.29
  1                    CONDUIT    655.02     0  03:02      2.96    0.23    0.32
  2                    CONDUIT      0.00     0  00:00      0.00    0.00    0.00
  3                    CONDUIT    250.55     0  00:00      8.26    0.40    0.46
  4                    CONDUIT      0.00     0  00:00      0.00    0.00    0.00
  CC-Pump-1            PUMP       200.00     0  02:40              1.00
  CC-Pump-2            PUMP         0.00     0  00:00              0.00
  JK-Pump-1            PUMP       300.00     0  00:00              1.00
  JK-Pump-2            PUMP         1.36     0  00:16              0.00
  XR-Pump-1            PUMP        95.00     0  00:00              1.00
  XR-Pump-2            PUMP        95.00     0  01:40              1.00
  XR-Pump-3            PUMP        95.00     0  00:20              1.00
  XR-Pump-4            PUMP        95.00     0  01:40              1.00
  
  
  ***************************
  Flow Classification Summary
  ***************************
  
  -------------------------------------------------------------------------------------
                      Adjusted    ---------- Fraction of Time in Flow Class ---------- 
                       /Actual         Up    Down  Sub   Sup   Up    Down  Norm  Inlet 
  Conduit               Length    Dry  Dry   Dry   Crit  Crit  Crit  Crit  Ltd   Ctrl  
  -------------------------------------------------------------------------------------
  WS02003066WSF200        1.00   0.06  0.00  0.00  0.00  0.94  0.00  0.00  0.76  0.00
  WS02006287WS02006284    1.00   0.04  0.02  0.00  0.71  0.24  0.00  0.00  0.77  0.00
  WS02006284WS02006280    1.00   0.05  0.00  0.00  0.00  0.00  0.00  0.95  0.00  0.00
  WS02006280WS02006229    1.00   0.05  0.00  0.00  0.00  0.00  0.00  0.95  0.00  0.00
  WS02006229WS02006228    1.00   0.00  0.00  0.00  0.99  0.00  0.00  0.01  0.00  0.00
  WS02006256WS02006235    1.00   0.00  0.00  0.00  1.00  0.00  0.00  0.00  0.00  0.00
  WS02006253WS02006251    1.00   0.03  0.01  0.00  0.95  0.00  0.00  0.00  0.00  0.00
  WS02006252WS02006251    1.00   0.12  0.00  0.00  0.00  0.00  0.88  0.00  0.00  0.00
  WS02006251WS02006249    1.00   0.00  0.00  0.00  1.00  0.00  0.00  0.00  0.26  0.00
  WS02006249WS02006248    1.00   0.00  0.02  0.00  0.91  0.00  0.07  0.00  0.00  0.00
  WS02006248WS02006247    1.00   0.02  0.00  0.00  0.97  0.00  0.00  0.00  0.19  0.00
  WS02006247WS02006245    1.00   0.02  0.00  0.00  0.98  0.00  0.00  0.00  0.00  0.00
  WS02006245WS02006243    1.00   0.01  0.00  0.00  0.94  0.00  0.00  0.04  0.01  0.00
  WS02006243WS02006242    1.00   0.01  0.00  0.00  0.99  0.00  0.00  0.00  0.26  0.00
  WS02006242WS02006240    1.00   0.00  0.00  0.00  1.00  0.00  0.00  0.00  0.00  0.00
  WS02006240WS02006239    1.00   0.00  0.00  0.00  0.95  0.00  0.00  0.04  0.01  0.00
  WS02006239WS02006238    1.00   0.00  0.00  0.00  1.00  0.00  0.00  0.00  0.01  0.00
  WS02006238WS02006235    1.00   0.00  0.00  0.00  1.00  0.00  0.00  0.00  0.00  0.00
  WS02006235WS02006234    1.00   0.00  0.00  0.00  0.95  0.00  0.05  0.00  0.00  0.00
  WS02006234WS02006232    1.00   0.00  0.00  0.00  1.00  0.00  0.00  0.00  0.16  0.00
  WS02006232WS02006231    1.00   0.00  0.00  0.00  0.99  0.00  0.00  0.00  0.00  0.00
  WS02006231WS02006230    1.00   0.00  0.00  0.00  0.32  0.00  0.68  0.00  0.00  0.00
  WS02006230WS02006229    1.00   0.00  0.00  0.00  0.98  0.00  0.00  0.02  0.01  0.00
  WS02006228WS02006109    1.00   0.00  0.00  0.00  1.00  0.00  0.00  0.00  0.00  0.00
  WS02006116WS02004401    1.00   0.03  0.00  0.00  0.97  0.00  0.00  0.00  0.00  0.00
  WS02006115WS02006116    1.00   0.03  0.00  0.00  0.97  0.00  0.00  0.01  0.00  0.00
  WS02006113WS02006111    1.00   0.02  0.00  0.00  0.00  0.98  0.00  0.00  0.11  0.00
  WS02006112WS02006115    1.00   0.02  0.00  0.00  0.97  0.00  0.00  0.00  0.00  0.00
  WS02006111WS02006112    1.00   0.02  0.00  0.00  0.97  0.00  0.00  0.00  0.98  0.00
  WS02006110WS02006113    1.00   0.01  0.01  0.00  0.98  0.00  0.00  0.00  0.00  0.00
  WS02006109WS02006110    1.00   0.00  0.01  0.00  0.98  0.00  0.01  0.00  0.00  0.00
  WS02004411WS02004412    1.00   0.04  0.00  0.00  0.96  0.00  0.00  0.00  0.00  0.00
  WS02004401WS02004402    1.00   0.03  0.00  0.00  0.97  0.00  0.00  0.00  0.00  0.00
  WS02004413WS02003067    1.00   0.04  0.01  0.00  0.00  0.00  0.94  0.00  0.00  0.00
  WS02004412WS02004413    1.00   0.04  0.00  0.00  0.96  0.00  0.00  0.00  0.03  0.00
  WS02004410WS02004411    1.00   0.04  0.00  0.00  0.96  0.00  0.00  0.00  0.04  0.00
  WS02004409WS02004410    1.00   0.04  0.00  0.00  0.96  0.00  0.00  0.00  0.04  0.00
  WS02004407WS02004409    1.00   0.04  0.00  0.00  0.96  0.00  0.00  0.00  0.89  0.00
  WS02004406WS02004407    1.00   0.00  0.04  0.00  0.96  0.00  0.00  0.00  0.00  0.00
  WS02004405WS02004406    1.00   0.00  0.00  0.00  1.00  0.00  0.00  0.00  0.00  0.00
  WS02004404WS02004405    1.00   0.00  0.00  0.00  1.00  0.00  0.00  0.00  0.00  0.00
  WS02004403WS02004404    1.00   0.00  0.03  0.00  0.97  0.00  0.00  0.00  0.01  0.00
  WS02004402WS02004403    1.00   0.03  0.00  0.00  0.97  0.00  0.00  0.00  0.00  0.00
  WS02004139WS02001211    1.00   0.00  0.00  0.00  0.99  0.00  0.01  0.00  0.00  0.00
  WS02004138WS02004139    1.00   0.00  0.00  0.00  0.99  0.01  0.00  0.00  1.00  0.00
  WS02003067WS02003066    1.00   0.06  0.00  0.00  0.94  0.00  0.00  0.00  0.00  0.00
  WS02001213WS02003059    1.00   0.00  0.01  0.00  0.99  0.00  0.00  0.00  0.00  0.00
  WS02001212WS02001213    1.00   0.01  0.00  0.00  0.90  0.00  0.10  0.00  0.00  0.00
  WS02001211WS02001212    1.00   0.00  0.01  0.00  0.99  0.00  0.00  0.00  0.00  0.00
  WS02003072WS02003073    1.00   0.00  0.00  0.00  0.00  0.00  0.00  1.00  0.00  0.00
  WS02003069WS02003072    1.00   0.00  0.00  0.00  0.99  0.01  0.00  0.00  0.28  0.00
  WS02003060WS02003069    1.00   0.00  0.00  0.00  0.99  0.01  0.00  0.00  0.23  0.00
  WS02003059WS02003060    1.00   0.00  0.00  0.00  1.00  0.00  0.00  0.00  0.02  0.00
  HS02004901HS02004770    1.00   0.05  0.00  0.00  0.95  0.00  0.00  0.00  0.03  0.00
  HS02004876HS02004881    1.00   0.02  0.00  0.00  0.98  0.00  0.00  0.00  0.00  0.00
  HS02004870HS02004876    1.00   0.01  0.00  0.00  0.99  0.00  0.00  0.00  0.95  0.00
  HS02004842HS02004848    1.00   0.00  0.05  0.00  0.95  0.00  0.00  0.00  0.69  0.00
  HS02004837HS02004842    1.00   0.00  0.00  0.00  0.99  0.01  0.00  0.00  0.11  0.00
  HS02004830HS02004837    1.00   0.00  0.00  0.00  1.00  0.00  0.00  0.00  0.99  0.00
  HS02004824HS02004830    1.00   0.00  0.00  0.00  1.00  0.00  0.00  0.00  0.00  0.00
  HS02004817HS02004824    1.00   0.00  0.00  0.00  1.00  0.00  0.00  0.00  1.00  0.00
  HS02004770HS02004777    1.00   0.00  0.05  0.00  0.95  0.00  0.00  0.00  0.07  0.00
  HS02004799HS02004480    1.00   0.00  0.03  0.00  0.94  0.00  0.03  0.00  0.00  0.00
  HS02004792HS02004799    1.00   0.00  0.00  0.00  0.99  0.01  0.00  0.00  0.98  0.00
  HS02004788HS02004792    1.00   0.00  0.00  0.00  0.99  0.01  0.00  0.00  0.98  0.00
  HS02004785HS02004788    1.00   0.00  0.00  0.00  1.00  0.00  0.00  0.00  0.00  0.00
  HS02004777HS02004785    1.00   0.00  0.00  0.00  1.00  0.00  0.00  0.00  0.21  0.00
  HS02004480HS02004478    1.00   0.05  0.00  0.00  0.75  0.00  0.00  0.20  0.00  0.00
  HS02004479HS02004480    1.00   0.03  0.00  0.00  0.97  0.00  0.00  0.00  0.16  0.00
  HS02004862HS02004870    1.00   0.00  0.00  0.00  1.00  0.00  0.00  0.00  0.05  0.00
  HS02004848HS02004852    1.00   0.05  0.00  0.00  0.95  0.00  0.00  0.00  0.71  0.00
  HS02004856HS02004862    1.00   0.00  0.07  0.00  0.93  0.00  0.00  0.00  0.74  0.00
  HS02004852HS02004856    1.00   0.05  0.01  0.00  0.95  0.00  0.00  0.00  0.83  0.00
  HS02004802HS02004478    1.00   0.05  0.01  0.00  0.95  0.00  0.00  0.00  0.01  0.00
  HS02004478WS02006287    1.00   0.06  0.00  0.00  0.88  0.07  0.00  0.00  0.76  0.00
  HS02004817HS02004807    1.00   0.00  0.05  0.00  0.95  0.00  0.00  0.00  0.00  0.00
  HS02004807HS02004802    1.00   0.05  0.00  0.00  0.95  0.00  0.00  0.00  0.01  0.00
  YS02001759YS02001757    1.00   0.00  0.00  0.00  1.00  0.00  0.00  0.00  0.17  0.00
  YS02001762YS02001759    1.00   0.00  0.00  0.00  1.00  0.00  0.00  0.00  0.05  0.00
  YS02001765YS02001762    1.00   0.00  0.00  0.00  1.00  0.00  0.00  0.00  0.22  0.00
  YS02001770YS02001767    1.00   0.00  0.00  0.00  1.00  0.00  0.00  0.00  0.00  0.00
  YS02001774YS02001770    1.00   0.00  0.05  0.00  0.95  0.00  0.00  0.00  0.06  0.00
  YS02001779YS02001774    1.00   0.00  0.00  0.00  1.00  0.00  0.00  0.00  0.26  0.00
  YS02001649YS02001757    1.00   0.00  0.00  0.00  1.00  0.00  0.00  0.00  0.19  0.00
  YS02001767YS02001765    1.00   0.00  0.00  0.00  1.00  0.00  0.00  0.00  0.01  0.00
  YS02006561YS02001783    1.00   0.07  0.00  0.00  0.00  0.93  0.00  0.00  0.73  0.00
  YS02001783YS02001784    1.00   0.00  0.07  0.00  0.93  0.00  0.00  0.00  0.00  0.00
  YS02001784YS02001785    1.00   0.00  0.00  0.00  1.00  0.00  0.00  0.00  0.25  0.00
  YS02001788YS02001790    1.00   0.00  0.00  0.00  0.07  0.93  0.00  0.00  0.76  0.00
  YS02001790YS02001791    1.00   0.00  0.00  0.00  0.02  0.98  0.00  0.00  0.56  0.00
  YS02001791YS02001793    1.00   0.00  0.00  0.00  0.00  1.00  0.00  0.00  0.00  0.00
  YS02001910YS02001907    1.00   0.00  0.00  0.00  0.97  0.00  0.00  0.03  0.13  0.00
  YS02001786YS02001788    1.00   0.00  0.00  0.00  0.08  0.92  0.00  0.00  0.00  0.00
  YS02001915YS02001910    1.00   0.00  0.00  0.00  0.99  0.01  0.00  0.00  0.24  0.00
  YS02001918YS02001915    1.00   0.00  0.01  0.00  0.98  0.02  0.00  0.00  0.81  0.00
  YS02001923YS02001920    1.00   0.00  0.00  0.00  1.00  0.00  0.00  0.00  1.00  0.00
  YS02001926YS02001923    1.00   0.00  0.04  0.00  0.00  0.00  0.96  0.00  0.00  0.00
  YS02001929YS02001926    1.00   0.00  0.05  0.00  0.95  0.00  0.00  0.00  0.87  0.00
  YS02001920YS02001918    1.00   0.00  0.01  0.00  0.99  0.00  0.00  0.00  0.00  0.00
  YS02001629YS02163301    1.00   0.06  0.00  0.00  0.93  0.00  0.00  0.00  0.00  0.00
  YS02001619YS02001622    1.00   0.05  0.00  0.00  0.95  0.00  0.00  0.00  0.00  0.00
  YS02001622YS02001625    1.00   0.05  0.00  0.00  0.95  0.00  0.00  0.00  0.13  0.00
  YS02001625YS02001629    1.00   0.05  0.03  0.00  0.92  0.00  0.01  0.00  0.00  0.00
  YS02163301YS02001633    1.00   0.00  0.06  0.00  0.94  0.00  0.00  0.00  0.00  0.00
  YS02163601YS02164001    1.00   0.00  0.04  0.00  0.96  0.00  0.00  0.00  0.00  0.00
  YS02164001YS02001641    1.00   0.01  0.03  0.00  0.96  0.00  0.00  0.00  0.07  0.00
  YS02001641YS02001644    1.00   0.00  0.01  0.00  0.99  0.00  0.00  0.00  0.00  0.00
  YS02001647YS02001649    1.00   0.00  0.07  0.00  0.93  0.00  0.00  0.00  0.01  0.00
  YS02006553YS02006556    1.00   0.01  0.00  0.00  0.99  0.00  0.00  0.00  0.03  0.00
  YS02006556YS02006558    1.00   0.00  0.00  0.00  1.00  0.00  0.00  0.00  0.00  0.00
  YSB6556YSB1171          1.00   0.03  0.02  0.00  0.96  0.00  0.00  0.00  0.00  0.00
  YS02001907YS02006553    1.00   0.00  0.02  0.00  0.97  0.00  0.00  0.00  0.00  0.00
  YS02006558YS02006561    1.00   0.07  0.00  0.00  0.00  0.93  0.00  0.00  0.69  0.00
  YS02001633YS02163601    1.00   0.00  0.01  0.00  0.99  0.00  0.00  0.00  0.20  0.00
  YS02001644YS02001647    1.00   0.00  0.07  0.00  0.93  0.00  0.00  0.00  0.00  0.00
  YS02001745YS02001748    1.00   0.00  0.00  0.00  0.88  0.01  0.00  0.11  0.20  0.00
  YS02001748YS02001751    1.00   0.00  0.00  0.00  0.98  0.02  0.00  0.00  0.24  0.00
  YS02001751YS02001754    1.00   0.00  0.00  0.00  0.92  0.00  0.00  0.07  0.02  0.00
  YS02001754YS02001757    1.00   0.00  0.00  0.00  0.99  0.01  0.00  0.00  0.26  0.00
  YS02001882YS02001884    1.00   0.06  0.00  0.00  0.94  0.00  0.00  0.00  0.00  0.00
  YS02001884YS02001887    1.00   0.03  0.01  0.00  0.96  0.00  0.00  0.00  0.00  0.00
  YS02001890YS02001895    1.00   0.00  0.06  0.00  0.93  0.00  0.00  0.00  0.00  0.00
  YS02001895YS02001898    1.00   0.07  0.00  0.00  0.93  0.00  0.01  0.00  0.00  0.00
  YS02001898YS02001901    1.00   0.06  0.00  0.00  0.93  0.00  0.00  0.00  0.02  0.00
  YS02001901YS02001904    1.00   0.06  0.00  0.00  0.94  0.00  0.00  0.00  0.00  0.00
  YS02001904YS02001907    1.00   0.00  0.06  0.00  0.94  0.00  0.00  0.00  0.00  0.00
  YS02001887YS02001890    1.00   0.00  0.00  0.00  0.97  0.00  0.02  0.00  0.00  0.00
  YS02001652YS02001649    1.00   0.00  0.00  0.00  1.00  0.00  0.00  0.00  0.26  0.00
  YS02001655YS02001652    1.00   0.00  0.00  0.00  0.92  0.00  0.00  0.07  0.02  0.00
  YS02001658YS02001655    1.00   0.00  0.06  0.00  0.92  0.02  0.00  0.00  0.10  0.00
  YS02001661YS02001658    1.00   0.06  0.00  0.00  0.88  0.07  0.00  0.00  0.19  0.00
  YS02001664YS02001661    1.00   0.05  0.00  0.00  0.75  0.20  0.00  0.00  0.86  0.00
  YSB1154YSB6556          1.00   0.04  0.00  0.00  0.96  0.00  0.00  0.00  0.02  0.00
  YSB1174YSB1171          1.00   0.03  0.01  0.00  0.96  0.00  0.00  0.00  0.00  0.00
  YSB1171HS02004479       1.00   0.03  0.00  0.00  0.97  0.00  0.00  0.00  0.13  0.00
  HS02004881HS02006253    1.00   0.03  0.00  0.00  0.86  0.01  0.00  0.10  0.67  0.00
  YS02001793JiankangQianchi    1.00   0.00  0.00  0.00  0.20  0.80  0.00  0.00  0.19  0.00
  YS02001757CaochengTiaoxuchi    1.00   0.00  0.08  0.00  0.92  0.00  0.00  0.00  0.00  0.00
  WSF200WS02003060        1.00   0.00  0.06  0.00  0.72  0.21  0.00  0.00  0.08  0.00
  1                       1.00   0.00  0.00  0.00  0.00  1.00  0.00  0.00  0.61  0.00
  2                       1.00   1.00  0.00  0.00  0.00  0.00  0.00  0.00  0.00  0.00
  3                       1.00   0.34  0.00  0.00  0.00  0.66  0.00  0.00  0.27  0.00
  4                       1.00   1.00  0.00  0.00  0.00  0.00  0.00  0.00  0.00  0.00
  
  
  *************************
  Conduit Surcharge Summary
  *************************
  
  ----------------------------------------------------------------------------
                                                           Hours        Hours 
                         --------- Hours Full --------   Above Full   Capacity
  Conduit                Both Ends  Upstream  Dnstream   Normal Flow   Limited
  ----------------------------------------------------------------------------
  WS02006229WS02006228        0.50      0.56      0.50      4.27         0.50
  WS02006256WS02006235        5.71      5.71      6.34      3.51         0.01
  WS02006249WS02006248        0.01      0.01      0.01      5.18         0.01
  WS02006247WS02006245        0.01      0.01      0.01      5.22         0.01
  WS02006235WS02006234        0.01      0.01      0.01      5.73         0.01
  WS02006231WS02006230        0.01      0.01      0.01      5.73         0.01
  WS02006230WS02006229        1.33      3.28      1.33      5.82         1.33
  WS02006228WS02006109        0.53      0.88      0.53      5.59         0.53
  WS02006111WS02006112        0.01      0.01      4.96      0.01         0.01
  WS02006110WS02006113        0.01      0.01      0.63      0.01         0.01
  WS02006109WS02006110        0.01      0.01      0.88      0.01         0.01
  WS02004404WS02004405        0.01      0.01      0.01      5.63         0.01
  WS02003072WS02003073        0.01      0.01      0.01      5.39         0.01
  YS02001759YS02001757        5.26      5.26      5.38      0.01         0.01
  YS02001762YS02001759        5.21      5.21      5.26      0.01         0.02
  YS02001765YS02001762        5.13      5.13      5.21      0.01         0.01
  YS02001770YS02001767        4.99      4.99      5.01      0.01         0.75
  YS02001774YS02001770        4.55      4.55      5.19      0.01         0.01
  YS02001779YS02001774        1.95      1.95      5.19      0.01         0.01
  YS02001649YS02001757        5.23      5.23      5.38      0.01         0.01
  YS02001767YS02001765        5.01      5.01      5.13      0.01         0.02
  YS02001629YS02163301        4.43      4.43      4.91      0.01         0.01
  YS02001622YS02001625        0.01      0.01      3.83      0.01         0.01
  YS02001625YS02001629        0.01      0.01      3.83      0.01         0.01
  YS02163301YS02001633        4.91      4.91      5.14      0.01         0.01
  YS02163601YS02164001        5.13      5.13      5.22      0.01         0.01
  YS02164001YS02001641        5.13      5.13      5.16      0.01         0.01
  YS02001641YS02001644        5.16      5.16      5.17      0.01         0.27
  YS02001647YS02001649        3.69      3.69      5.23      0.01         0.01
  YS02001633YS02163601        5.09      5.09      5.22      0.01         0.01
  YS02001644YS02001647        3.69      3.69      5.17      0.01         0.01
  YS02001751YS02001754        0.01      0.01      2.73      0.01         0.01
  YS02001754YS02001757        3.72      3.72      5.38      0.01         0.01
  YS02001652YS02001649        3.89      3.89      5.23      0.01         0.01
  YS02001655YS02001652        0.01      0.01      3.37      0.01         0.01
  YS02001793JiankangQianchi        0.01      0.01      0.86      0.01         0.01
  YS02001757CaochengTiaoxuchi        0.01      0.01      5.38      0.01         0.01
  
  
  ***************
  Pumping Summary
  ***************
  
  ---------------------------------------------------------------------------------------------------------
                                                  Min       Avg       Max     Total     Power    % Time Off
                        Percent   Number of      Flow      Flow      Flow    Volume     Usage    Pump Curve
  Pump                 Utilized   Start-Ups       LPS       LPS       LPS  10^6 ltr     Kw-hr    Low   High
  ---------------------------------------------------------------------------------------------------------
  CC-Pump-1               68.08           1      0.00    197.01    200.00     3.780     10.14    0.0    9.5
  CC-Pump-2                0.00           0      0.00      0.00      0.00     0.000      0.00    0.0    0.0
  JK-Pump-1              100.00           1      0.00    157.32    300.00     3.492     63.49    0.0    0.0
  JK-Pump-2                4.25           1      0.00      1.30      1.36     0.002      0.03    0.0    0.0
  XR-Pump-1               29.78           2      0.00     78.94     95.00     0.656      6.30    0.0    0.0
  XR-Pump-2               80.84           3      0.00     92.57     95.00     2.023     10.39    0.0    0.0
  XR-Pump-3               27.65           2      0.00     76.58     95.00     0.627      5.97    0.0    0.0
  XR-Pump-4               80.84           3      0.00     92.57     95.00     2.023     10.39    0.0    0.0
  

  Analysis begun on:  Thu Jan  6 02:09:57 2022
  Analysis ended on:  Thu Jan  6 02:10:00 2022
  Total elapsed time: 00:00:03