
  EPA STORM WATER MANAGEMENT MODEL - VERSION 5.1 (Build 5.3.0.dev0)
  --------------------------------------------------------------

  WARNING 04: minimum elevation drop used for Conduit WS02004404WS02004405
  WARNING 03: negative offset ignored for Link YS02001904YS02001907
  
  *********************************************************
  NOTE: The summary statistics displayed in this report are
  based on results found at every computational time step,  
  not just on results from each reporting time step.
  *********************************************************
  
  ****************
  Analysis Options
  ****************
  Flow Units ............... LPS
  Process Models:
    Rainfall/Runoff ........ YES
    RDII ................... NO
    Snowmelt ............... NO
    Groundwater ............ NO
    Flow Routing ........... YES
    Ponding Allowed ........ NO
    Water Quality .......... NO
  Infiltration Method ...... HORTON
  Flow Routing Method ...... DYNWAVE
  Surcharge Method ......... EXTRAN
  Starting Date ............ 08/28/2015 08:00:00
  Ending Date .............. 08/28/2015 15:50:00
  Antecedent Dry Days ...... 8.0
  Report Time Step ......... 00:01:00
  Wet Time Step ............ 00:01:00
  Dry Time Step ............ 00:01:00
  Routing Time Step ........ 5.00 sec
  Variable Time Step ....... YES
  Maximum Trials ........... 8
  Number of Threads ........ 4
  Head Tolerance ........... 0.001500 m
  
  
  **************************        Volume         Depth
  Runoff Quantity Continuity     hectare-m            mm
  **************************     ---------       -------
  Total Precipitation ......         1.933         4.232
  Evaporation Loss .........         0.000         0.000
  Infiltration Loss ........         0.477         1.045
  Surface Runoff ...........         0.652         1.428
  Final Storage ............         0.804         1.760
  Continuity Error (%) .....        -0.017
  
  
  **************************        Volume        Volume
  Flow Routing Continuity        hectare-m      10^6 ltr
  **************************     ---------     ---------
  Dry Weather Inflow .......         0.616         6.165
  Wet Weather Inflow .......         0.652         6.516
  Groundwater Inflow .......         0.000         0.000
  RDII Inflow ..............         0.000         0.000
  External Inflow ..........         0.102         1.024
  External Outflow .........         1.166        11.658
  Flooding Loss ............         0.077         0.768
  Evaporation Loss .........         0.000         0.000
  Exfiltration Loss ........         0.000         0.000
  Initial Stored Volume ....         0.076         0.761
  Final Stored Volume ......         0.208         2.083
  Continuity Error (%) .....        -0.309
  
  
  *************************
  Highest Continuity Errors
  *************************
  Node HS02004842 (36.44%)
  Node YS02001884 (30.77%)
  Node YS02001774 (16.56%)
  Node YSB1171 (10.43%)
  Node HS02004901 (8.69%)
  
  
  ***************************
  Time-Step Critical Elements
  ***************************
  Link WS02006252WS02006251 (87.61%)
  Link 3 (4.98%)
  Link WS02006280WS02006229 (3.31%)
  
  
  ********************************
  Highest Flow Instability Indexes
  ********************************
  Link WS02006113WS02006111 (50)
  Link WS02006111WS02006112 (32)
  Link YS02001754YS02001757 (3)
  Link YS02001751YS02001754 (3)
  Link YS02001767YS02001765 (3)
  
  
  *************************
  Routing Time Step Summary
  *************************
  Minimum Time Step           :     0.45 sec
  Average Time Step           :     1.01 sec
  Maximum Time Step           :     5.00 sec
  Percent in Steady State     :    -0.00
  Average Iterations per Step :     2.00
  Percent Not Converging      :     0.00
  
  
  ***************************
  Subcatchment Runoff Summary
  ***************************
  
  ------------------------------------------------------------------------------------------------------------------------------
                            Total      Total      Total      Total     Imperv       Perv      Total       Total     Peak  Runoff
                           Precip      Runon       Evap      Infil     Runoff     Runoff     Runoff      Runoff   Runoff   Coeff
  Subcatchment                 mm         mm         mm         mm         mm         mm         mm    10^6 ltr      LPS
  ------------------------------------------------------------------------------------------------------------------------------
  sub0                       4.23       0.00       0.00       0.30       2.67       0.00       2.67        0.00     0.79   0.631
  sub1                       4.23       0.00       0.00       0.47       2.51       0.00       2.51        0.02     4.06   0.594
  sub2                       4.23       0.00       0.00       1.57       1.76       0.00       1.76        0.02     3.58   0.416
  sub3                       4.23       0.00       0.00       1.57       1.73       0.00       1.73        0.04     7.33   0.409
  sub4                       4.23       0.00       0.00       0.47       2.39       0.00       2.39        0.05     8.19   0.564
  sub5                       4.23       0.00       0.00       0.30       2.63       0.00       2.63        0.03     7.22   0.621
  sub7                       4.23       0.00       0.00       0.38       2.60       0.00       2.60        0.01     2.57   0.614
  sub8                       4.23       0.00       0.00       0.38       2.59       0.00       2.59        0.02     4.52   0.612
  sub9                       4.23       0.00       0.00       0.38       2.59       0.00       2.59        0.01     3.34   0.611
  sub10                      4.23       0.00       0.00       0.34       2.60       0.00       2.60        0.03     7.22   0.615
  sub11                      4.23       0.00       0.00       0.34       2.62       0.00       2.62        0.03     8.50   0.619
  sub12                      4.23       0.00       0.00       0.55       2.49       0.00       2.49        0.02     7.25   0.589
  sub14                      4.23       0.00       0.00       0.38       2.58       0.00       2.58        0.02     6.53   0.611
  sub15                      4.23       0.00       0.00       1.27       1.99       0.00       1.99        0.03     8.86   0.469
  sub16                      4.23       0.00       0.00       1.40       1.92       0.00       1.92        0.02     6.36   0.453
  sub17                      4.23       0.00       0.00       1.35       1.94       0.00       1.94        0.02     5.13   0.459
  sub22                      4.23       0.00       0.00       1.82       1.62       0.00       1.62        0.10    29.11   0.384
  sub23                      4.23       0.00       0.00       1.57       1.80       0.00       1.80        0.09    24.81   0.425
  sub60                      4.23       0.00       0.00       0.51       1.55       0.00       1.55        0.47    39.92   0.367
  sub61                      4.23       0.00       0.00       0.72       1.71       0.00       1.71        0.53    50.94   0.405
  sub62                      4.23       0.00       0.00       0.34       1.82       0.00       1.82        0.56    51.91   0.431
  sub63                      4.23       0.00       0.00       1.23       1.55       0.00       1.55        0.47    47.72   0.365
  sub64                      4.23       0.00       0.00       0.63       1.48       0.00       1.48        0.45    37.84   0.350
  sub65                      4.23       0.00       0.00       0.55       1.50       0.00       1.50        0.46    38.31   0.354
  sub66                      4.23       0.00       0.00       1.23       1.31       0.00       1.31        0.40    34.96   0.309
  sub67                      4.23       0.00       0.00       0.34       2.06       0.00       2.06        0.64    67.22   0.486
  sub68                      4.23       0.00       0.00       0.59       1.84       0.00       1.84        0.57    56.45   0.434
  sub69                      4.23       0.00       0.00       0.63       2.04       0.00       2.04        0.48    56.62   0.482
  sub70                      4.23       2.08       0.00       2.15       2.35       0.00       2.35        0.54    42.00   0.371
  sub71                      4.23       0.00       0.00       0.34       1.72       0.00       1.72        0.41    36.02   0.407
  sub72                      4.23       0.00       0.00       0.30       1.14       0.00       1.14        0.23    16.24   0.270
  sub73                      4.23       2.28       0.00       2.21       2.28       0.00       2.28        0.54    35.81   0.350
  sub74                      4.23       0.00       0.00       3.17       0.62       0.00       0.62        0.25    31.71   0.147
  
  
  ******************
  Node Depth Summary
  ******************
  
  ---------------------------------------------------------------------------------
                                 Average  Maximum  Maximum  Time of Max    Reported
                                   Depth    Depth      HGL   Occurrence   Max Depth
  Node                 Type       Meters   Meters   Meters  days hr:min      Meters
  ---------------------------------------------------------------------------------
  WS02001211           JUNCTION     0.61     0.67     5.51     0  00:22        0.67
  WS02001212           JUNCTION     0.34     0.39     5.45     0  00:22        0.39
  WS02001213           JUNCTION     0.56     0.61     5.37     0  03:15        0.61
  WS02003069           JUNCTION     0.39     0.45     5.03     0  03:14        0.45
  WS02003072           JUNCTION     0.45     0.52     4.89     0  03:15        0.52
  WS02003073           JUNCTION     0.27     0.31     4.37     0  03:16        0.31
  WS02003060           JUNCTION     0.35     0.40     5.33     0  03:14        0.40
  WS02003066           JUNCTION     0.21     0.26     5.81     0  03:12        0.26
  WS02003059           JUNCTION     0.62     0.67     5.36     0  03:15        0.67
  WS02003067           JUNCTION     0.53     0.63     5.95     0  03:11        0.63
  WS02004401           JUNCTION     0.61     0.73     6.73     0  03:07        0.73
  WS02004402           JUNCTION     0.65     0.76     6.72     0  03:07        0.76
  WS02004403           JUNCTION     0.67     0.78     6.71     0  03:08        0.78
  WS02004404           JUNCTION     0.74     0.86     6.71     0  03:08        0.86
  WS02004406           JUNCTION     0.75     0.87     6.70     0  03:08        0.87
  WS02004409           JUNCTION     0.43     0.55     6.32     0  03:10        0.55
  WS02004410           JUNCTION     0.45     0.57     6.29     0  03:11        0.57
  WS02004411           JUNCTION     0.47     0.59     6.27     0  03:11        0.59
  WS02004412           JUNCTION     0.49     0.60     6.24     0  03:11        0.60
  WS02004413           JUNCTION     0.65     0.77     6.24     0  03:11        0.77
  WS02004405           JUNCTION     0.74     0.86     6.71     0  03:08        0.86
  WS02006109           JUNCTION     0.68     0.81     7.43     0  03:03        0.81
  WS02006110           JUNCTION     0.68     0.80     7.38     0  03:03        0.80
  WS02006111           JUNCTION     0.19     0.24     6.95     0  03:04        0.24
  WS02006112           JUNCTION     0.77     0.91     6.79     0  03:07        0.91
  WS02006113           JUNCTION     0.30     0.38     7.27     0  03:03        0.38
  WS02006115           JUNCTION     0.50     0.62     6.76     0  03:07        0.62
  WS02006116           JUNCTION     0.58     0.71     6.75     0  03:07        0.71
  WS02006230           JUNCTION     0.62     0.79     7.53     0  03:03        0.79
  WS02006231           JUNCTION     0.41     0.51     7.63     0  03:05        0.51
  WS02006232           JUNCTION     0.54     0.65     7.69     0  03:06        0.65
  WS02006234           JUNCTION     0.45     0.57     7.73     0  03:06        0.57
  WS02006235           JUNCTION     0.48     0.60     7.76     0  03:06        0.60
  WS02006238           JUNCTION     0.51     0.63     7.77     0  03:06        0.63
  WS02006240           JUNCTION     0.40     0.52     7.81     0  03:07        0.52
  WS02006242           JUNCTION     0.45     0.57     7.84     0  03:07        0.57
  WS02006243           JUNCTION     0.33     0.44     7.86     0  03:07        0.44
  WS02006245           JUNCTION     0.32     0.42     7.91     0  03:06        0.42
  WS02006247           JUNCTION     0.35     0.44     7.94     0  03:06        0.44
  WS02006248           JUNCTION     0.29     0.38     7.97     0  03:05        0.38
  WS02006249           JUNCTION     0.33     0.42     8.02     0  03:04        0.42
  WS02006239           JUNCTION     0.46     0.58     7.79     0  03:06        0.58
  WS02006251           JUNCTION     0.32     0.41     8.08     0  03:02        0.41
  WS02006252           JUNCTION     0.28     0.35     8.59     0  02:50        0.35
  WS02006253           JUNCTION     0.35     0.43     8.08     0  03:02        0.43
  WS02006256           JUNCTION     0.89     1.15     8.09     0  00:00        1.10
  WS02004138           JUNCTION     0.14     0.17     7.42     0  00:20        0.17
  WS02004407           JUNCTION     0.20     0.25     6.56     0  03:08        0.25
  WS02006228           JUNCTION     0.66     0.81     7.46     0  03:03        0.81
  WS02006229           JUNCTION     0.63     0.79     7.48     0  03:03        0.79
  WS02006280           JUNCTION     0.05     0.11     8.38     0  02:24        0.11
  WS02006284           JUNCTION     0.33     0.43     8.83     0  02:24        0.43
  WS02006287           JUNCTION     0.07     0.16     9.11     0  02:24        0.16
  WSF200               JUNCTION     0.19     0.25     5.49     0  03:12        0.25
  HS02004901           JUNCTION     0.10     0.19    10.01     0  02:22        0.19
  HS02004881           JUNCTION     0.00     0.02     9.05     0  02:23        0.02
  HS02004876           JUNCTION     0.03     0.09     9.12     0  02:23        0.09
  HS02004870           JUNCTION     0.01     0.03     9.31     0  02:24        0.03
  HS02004862           JUNCTION     0.01     0.03     9.42     0  02:25        0.03
  HS02004856           JUNCTION     0.07     0.09     9.52     0  02:24        0.09
  HS02004852           JUNCTION     0.00     0.02     9.53     0  02:25        0.02
  HS02004848           JUNCTION     0.00     0.02     9.62     0  02:22        0.02
  HS02004842           JUNCTION     0.32     0.35     9.62     0  02:22        0.35
  HS02004837           JUNCTION     0.02     0.04     9.62     0  02:22        0.04
  HS02004830           JUNCTION     0.03     0.05     9.52     0  02:23        0.05
  HS02004824           JUNCTION     0.02     0.03     9.43     0  02:26        0.03
  HS02004817           JUNCTION     0.41     0.49     9.33     0  02:25        0.49
  HS02004807           JUNCTION     0.10     0.16     9.33     0  02:24        0.16
  HS02004802           JUNCTION     0.14     0.20     9.33     0  02:24        0.20
  HS02004799           JUNCTION     0.09     0.20     9.41     0  02:22        0.20
  HS02004792           JUNCTION     0.02     0.07     9.59     0  02:21        0.07
  HS02004788           JUNCTION     0.01     0.05     9.95     0  02:23        0.05
  HS02004785           JUNCTION     0.03     0.10    10.00     0  02:23        0.10
  HS02004777           JUNCTION     0.12     0.21    10.01     0  02:23        0.21
  HS02004770           JUNCTION     0.09     0.18    10.01     0  02:22        0.18
  HS02004480           JUNCTION     0.05     0.15     9.39     0  02:23        0.15
  HS02004479           JUNCTION     0.09     0.18     9.39     0  02:23        0.18
  HS02004478           JUNCTION     0.04     0.09     9.32     0  02:24        0.09
  YS02001745           JUNCTION     0.06     0.09     7.60     0  03:01        0.09
  YS02001748           JUNCTION     0.08     0.14     7.22     0  03:16        0.14
  YS02001751           JUNCTION     0.23     0.35     7.23     0  03:55        0.35
  YS02001754           JUNCTION     0.47     0.66     7.26     0  04:02        0.65
  YS02001762           JUNCTION     0.67     0.82     7.22     0  03:11        0.82
  YS02001765           JUNCTION     0.62     0.77     7.22     0  03:12        0.77
  YS02001767           JUNCTION     0.58     0.73     7.22     0  03:06        0.73
  YS02001770           JUNCTION     0.58     0.72     7.22     0  03:07        0.72
  YS02001774           JUNCTION     0.65     0.80     7.22     0  03:07        0.79
  YS02001779           JUNCTION     0.40     0.53     7.22     0  03:07        0.53
  YS02001882           JUNCTION     0.22     0.33     7.05     0  03:00        0.33
  YS02001884           JUNCTION     0.32     0.43     7.05     0  03:01        0.43
  YS02001759           JUNCTION     0.70     0.85     7.22     0  03:12        0.85
  YS02001887           JUNCTION     0.39     0.51     7.05     0  03:00        0.51
  YS02001890           JUNCTION     0.42     0.54     7.05     0  03:00        0.54
  YS02001898           JUNCTION     0.20     0.30     7.03     0  03:01        0.30
  YS02001901           JUNCTION     0.31     0.42     7.03     0  03:02        0.42
  YS02001904           JUNCTION     0.29     0.40     7.03     0  03:01        0.40
  YS02001907           JUNCTION     0.62     0.74     7.03     0  03:01        0.74
  YS02001910           JUNCTION     0.41     0.52     7.03     0  03:01        0.52
  YS02001915           JUNCTION     0.21     0.31     7.03     0  03:00        0.31
  YS02001918           JUNCTION     0.06     0.07     7.14     0  03:04        0.07
  YS02001619           JUNCTION     0.19     0.29     7.22     0  03:13        0.29
  YS02001629           JUNCTION     0.53     0.67     7.22     0  03:11        0.67
  YS02001641           JUNCTION     0.63     0.78     7.22     0  03:10        0.78
  YS02001644           JUNCTION     0.64     0.79     7.22     0  03:06        0.78
  YS02001652           JUNCTION     0.48     0.63     7.22     0  03:12        0.63
  YS02001655           JUNCTION     0.25     0.37     7.22     0  03:07        0.37
  YS02001920           JUNCTION     0.15     0.17     7.17     0  03:03        0.17
  YS02001923           JUNCTION     0.05     0.06     7.32     0  03:02        0.06
  YS02001926           JUNCTION     0.11     0.14     7.58     0  03:02        0.14
  YS02001929           JUNCTION     0.05     0.06     7.76     0  03:01        0.06
  YS02001658           JUNCTION     0.06     0.10     7.24     0  02:54        0.10
  YS02001661           JUNCTION     0.12     0.16     7.57     0  02:54        0.16
  YS02001664           JUNCTION     0.05     0.09     8.01     0  02:53        0.09
  YS02001622           JUNCTION     0.21     0.32     7.22     0  03:12        0.32
  YS02001633           JUNCTION     0.62     0.77     7.22     0  03:11        0.76
  YS02001649           JUNCTION     0.67     0.83     7.22     0  03:09        0.83
  YS02001757           JUNCTION     0.80     0.96     7.22     0  03:13        0.96
  YS02001895           JUNCTION     0.19     0.30     7.04     0  03:00        0.30
  YS02001625           JUNCTION     0.48     0.62     7.22     0  03:12        0.61
  YS02163301           JUNCTION     0.56     0.70     7.22     0  03:11        0.70
  YS02163601           JUNCTION     0.67     0.82     7.22     0  03:11        0.82
  YS02164001           JUNCTION     0.61     0.76     7.22     0  03:10        0.76
  YS02001647           JUNCTION     0.47     0.61     7.22     0  03:10        0.61
  YSB1154              JUNCTION     0.22     0.33     9.39     0  02:23        0.33
  YSB6556              JUNCTION     0.12     0.22     9.39     0  02:22        0.22
  YSB1174              JUNCTION     0.18     0.28     9.39     0  02:23        0.28
  YSB1171              JUNCTION     0.37     0.49     9.39     0  02:23        0.49
  YS02006553           JUNCTION     0.62     0.75     7.03     0  03:01        0.75
  YS02006561           JUNCTION     0.11     0.16     6.82     0  03:01        0.16
  YS02006556           JUNCTION     0.60     0.72     7.03     0  03:00        0.72
  YS02006558           JUNCTION     0.64     0.76     7.03     0  03:00        0.76
  YS02001783           JUNCTION     0.18     0.29     6.43     0  03:01        0.29
  YS02001784           JUNCTION     0.22     0.32     6.39     0  03:01        0.32
  YS02001786           JUNCTION     0.18     0.27     6.30     0  03:01        0.27
  YS02001788           JUNCTION     0.13     0.20     6.17     0  03:02        0.20
  YS02001790           JUNCTION     0.16     0.24     5.88     0  03:02        0.24
  YS02001791           JUNCTION     0.10     0.16     5.63     0  03:02        0.16
  YS02001793           JUNCTION     0.07     0.11     4.94     0  03:02        0.11
  WS02004139           JUNCTION     0.55     0.61     5.52     0  00:22        0.61
  WSC                  OUTFALL      0.27     0.31     0.98     0  03:16        0.31
  3                    OUTFALL      0.02     0.13     6.13     0  00:00        0.10
  4                    OUTFALL      0.00     0.00     7.00     0  00:00        0.00
  5                    OUTFALL      0.00     0.00     5.00     0  00:00        0.00
  JK-storage           STORAGE      0.04     3.00     3.80     0  00:00        2.70
  CC-storage           STORAGE      0.06     0.14     7.14     0  04:07        0.14
  XR-storage           STORAGE      7.48     7.72     5.72     0  03:00        7.72
  
  
  *******************
  Node Inflow Summary
  *******************
  
  -------------------------------------------------------------------------------------------------
                                  Maximum  Maximum                  Lateral       Total        Flow
                                  Lateral    Total  Time of Max      Inflow      Inflow     Balance
                                   Inflow   Inflow   Occurrence      Volume      Volume       Error
  Node                 Type           LPS      LPS  days hr:min    10^6 ltr    10^6 ltr     Percent
  -------------------------------------------------------------------------------------------------
  WS02001211           JUNCTION      7.35   279.51     0  00:20       0.207        5.51       0.580
  WS02001212           JUNCTION      0.00   270.94     0  00:21           0        5.48       0.286
  WS02001213           JUNCTION      0.00   270.44     0  00:22           0        5.46       0.345
  WS02003069           JUNCTION      0.32   596.69     0  03:14     0.00902        11.3       0.180
  WS02003072           JUNCTION      0.00   596.68     0  03:15           0        11.3       0.237
  WS02003073           JUNCTION      1.82   598.49     0  03:15      0.0514        11.3       0.254
  WS02003060           JUNCTION     16.53   596.36     0  03:13       0.466        11.3       0.174
  WS02003066           JUNCTION      0.00   383.70     0  03:12           0        5.42       0.055
  WS02003059           JUNCTION      0.00   266.59     0  00:24           0        5.45       0.624
  WS02003067           JUNCTION      0.00   383.70     0  03:11           0        5.43       0.126
  WS02004401           JUNCTION      0.00   385.35     0  03:06           0         5.6       0.285
  WS02004402           JUNCTION      0.00   385.08     0  03:06           0        5.58       0.277
  WS02004403           JUNCTION      0.00   384.93     0  03:07           0        5.57       0.259
  WS02004404           JUNCTION      0.16   385.01     0  03:07     0.00457        5.56       0.204
  WS02004406           JUNCTION      0.00   384.98     0  03:08           0        5.53       0.499
  WS02004409           JUNCTION      0.00   384.95     0  03:08           0         5.5       0.175
  WS02004410           JUNCTION      0.00   384.47     0  03:09           0        5.49       0.210
  WS02004411           JUNCTION      0.00   384.11     0  03:10           0        5.48       0.227
  WS02004412           JUNCTION      0.00   383.88     0  03:10           0        5.47       0.260
  WS02004413           JUNCTION      0.00   383.75     0  03:11           0        5.45       0.408
  WS02004405           JUNCTION      0.04   385.01     0  03:07     0.00107        5.55       0.304
  WS02006109           JUNCTION      1.23   385.65     0  03:03      0.0347        5.67       0.308
  WS02006110           JUNCTION      0.00   385.64     0  03:03           0        5.65       0.258
  WS02006111           JUNCTION      0.00   393.32     0  03:03           0        5.63       0.048
  WS02006112           JUNCTION      5.13   387.76     0  03:03      0.0167        5.65       0.409
  WS02006113           JUNCTION      0.00   385.67     0  03:03           0        5.64       0.101
  WS02006115           JUNCTION      0.00   386.52     0  03:04           0        5.63       0.233
  WS02006116           JUNCTION      0.00   385.79     0  03:05           0        5.61       0.230
  WS02006230           JUNCTION     10.28   319.53     0  03:10        0.29        5.02       0.184
  WS02006231           JUNCTION      0.00   308.94     0  03:10           0        4.74       0.151
  WS02006232           JUNCTION      0.00   308.78     0  03:10           0        4.75       0.245
  WS02006234           JUNCTION      0.00   308.61     0  03:09           0        4.75       0.072
  WS02006235           JUNCTION      0.00   308.54     0  03:09           0        4.79       0.156
  WS02006238           JUNCTION      0.00   210.99     0  03:09           0        3.14       0.137
  WS02006240           JUNCTION      0.00   210.85     0  03:07           0        3.13       0.170
  WS02006242           JUNCTION      0.00   210.91     0  03:05           0        3.13       0.226
  WS02006243           JUNCTION      0.00   211.16     0  03:03           0        3.12       0.056
  WS02006245           JUNCTION      0.00   211.43     0  03:01           0        3.12       0.120
  WS02006247           JUNCTION      0.00   211.98     0  02:55           0        3.12       0.103
  WS02006248           JUNCTION      0.00   212.54     0  02:56           0        3.13       0.047
  WS02006249           JUNCTION      0.00   213.21     0  02:55           0        3.13       0.172
  WS02006239           JUNCTION      0.00   210.89     0  03:08           0        3.13       0.181
  WS02006251           JUNCTION      0.08   214.62     0  02:52     0.00217        3.14       0.129
  WS02006252           JUNCTION      0.00   200.00     0  02:50           0        3.04       0.008
  WS02006253           JUNCTION      0.79    21.98     0  02:23     0.00216      0.0974       1.400
  WS02006256           JUNCTION      0.00   300.00     0  00:00           0        2.07       0.114
  WS02004138           JUNCTION      0.00   284.79     0  00:20           0        5.33       0.061
  WS02004407           JUNCTION      0.00   384.96     0  03:08           0         5.5       0.082
  WS02006228           JUNCTION      0.00   384.43     0  03:02           0        5.65       0.197
  WS02006229           JUNCTION      0.00   384.43     0  03:02           0        5.66       0.165
  WS02006280           JUNCTION      0.00   119.69     0  02:24           0       0.646       0.011
  WS02006284           JUNCTION      0.10   119.69     0  02:24      0.0027       0.647       0.176
  WS02006287           JUNCTION      0.00   119.60     0  02:24           0       0.645       0.107
  WSF200               JUNCTION      0.00   383.70     0  03:12           0        5.42       0.046
  HS02004901           JUNCTION      6.36     6.36     0  02:14      0.0201      0.0202       9.517
  HS02004881           JUNCTION      2.57    21.38     0  02:23     0.00875      0.0905       0.220
  HS02004876           JUNCTION      4.06    19.03     0  02:23      0.0167      0.0823       0.634
  HS02004870           JUNCTION      4.52    15.06     0  02:23      0.0165      0.0657       0.161
  HS02004862           JUNCTION      3.78    10.85     0  02:24      0.0221      0.0493       0.339
  HS02004856           JUNCTION      3.34     7.11     0  02:23      0.0124      0.0287       5.273
  HS02004852           JUNCTION      0.00     3.98     0  02:23           0      0.0163       0.294
  HS02004848           JUNCTION      7.33     7.33     0  02:26      0.0389      0.0389       0.108
  HS02004842           JUNCTION      0.00     4.47     0  00:03           0      0.0357      57.342
  HS02004837           JUNCTION     13.57    16.77     0  02:21       0.208        0.23       0.354
  HS02004830           JUNCTION      0.15    16.91     0  02:22     0.00423       0.221       0.561
  HS02004824           JUNCTION      8.24    25.04     0  02:26      0.0512       0.271       0.199
  HS02004817           JUNCTION      0.60    25.64     0  02:26      0.0169       0.287       6.159
  HS02004807           JUNCTION      8.50    33.40     0  02:24      0.0304       0.301       1.424
  HS02004802           JUNCTION      0.00    33.47     0  02:26           0       0.297       1.388
  HS02004799           JUNCTION      6.53    73.43     0  02:21      0.0246       0.316       0.718
  HS02004792           JUNCTION     29.39    67.07     0  02:21        0.11       0.292       0.143
  HS02004788           JUNCTION     10.53    39.19     0  02:22      0.0812       0.182       0.216
  HS02004785           JUNCTION      0.15    29.04     0  02:21     0.00423       0.103       0.465
  HS02004777           JUNCTION      0.03    29.31     0  02:20    0.000846       0.103       5.266
  HS02004770           JUNCTION     24.81    30.23     0  02:17      0.0857       0.104       3.068
  HS02004480           JUNCTION      0.00    86.46     0  02:23           0       0.364       0.186
  HS02004479           JUNCTION      0.00    13.32     0  02:24           0       0.061       1.206
  HS02004478           JUNCTION      0.00   119.60     0  02:24           0       0.646       0.102
  YS02001745           JUNCTION     39.92    39.92     0  03:01       0.471       0.471       0.075
  YS02001748           JUNCTION      0.04    39.95     0  03:01     0.00127       0.472       0.029
  YS02001751           JUNCTION      0.01   114.34     0  04:09     0.00031       0.618       0.242
  YS02001754           JUNCTION      0.26   250.38     0  04:14     0.00733        1.05       1.056
  YS02001762           JUNCTION      0.00    58.72     0  04:01           0       0.603       2.312
  YS02001765           JUNCTION      0.00    90.69     0  03:58           0       0.593       2.496
  YS02001767           JUNCTION      0.54    73.82     0  04:05      0.0151       0.598       3.267
  YS02001770           JUNCTION     52.06    57.01     0  02:44       0.564       0.586       2.841
  YS02001774           JUNCTION      0.00    28.52     0  02:31           0      0.0883      19.851
  YS02001779           JUNCTION      0.01    15.58     0  03:59    0.000141      0.0516      10.932
  YS02001882           JUNCTION      0.00     2.24     0  02:12           0     0.00349      70.635
  YS02001884           JUNCTION      0.00     6.65     0  02:08           0      0.0142      44.443
  YS02001759           JUNCTION     50.98   123.98     0  03:59       0.529        1.11       1.434
  YS02001887           JUNCTION     67.67    67.67     0  02:51       0.648       0.654       1.022
  YS02001890           JUNCTION      0.00    67.36     0  02:53           0       0.635       1.159
  YS02001898           JUNCTION      0.00    67.11     0  02:56           0       0.625       0.295
  YS02001901           JUNCTION      0.00    67.14     0  02:57           0       0.625       0.804
  YS02001904           JUNCTION      0.00    66.84     0  02:57           0       0.624       0.751
  YS02001907           JUNCTION      0.00   121.85     0  03:02           0        1.33       1.622
  YS02001910           JUNCTION      0.00    55.19     0  03:01           0       0.715       1.346
  YS02001915           JUNCTION     36.04    54.97     0  03:01       0.407       0.718       0.548
  YS02001918           JUNCTION      0.00    19.12     0  03:03           0       0.312       0.269
  YS02001619           JUNCTION     34.96    34.96     0  03:01         0.4         0.4       0.136
  YS02001629           JUNCTION      0.00    37.37     0  02:39           0       0.384       1.440
  YS02001641           JUNCTION      0.00    76.18     0  03:12           0       0.814       1.558
  YS02001644           JUNCTION     37.88   111.15     0  03:05       0.452        1.25       1.233
  YS02001652           JUNCTION      0.00    78.05     0  04:13           0       0.523       1.753
  YS02001655           JUNCTION      0.15    47.87     0  02:54     0.00434       0.477       0.658
  YS02001920           JUNCTION      2.87    19.13     0  03:02      0.0809       0.314       0.549
  YS02001923           JUNCTION      0.04    16.26     0  03:02     0.00106       0.233       0.097
  YS02001926           JUNCTION      0.05    16.28     0  03:01     0.00147       0.234       0.702
  YS02001929           JUNCTION     16.24    16.24     0  03:01       0.232       0.232       0.091
  YS02001658           JUNCTION      0.00    47.72     0  02:54           0       0.467       0.041
  YS02001661           JUNCTION      0.00    47.72     0  02:53           0       0.467       0.157
  YS02001664           JUNCTION     47.72    47.72     0  02:53       0.467       0.467       0.031
  YS02001622           JUNCTION      0.00    35.80     0  02:55           0         0.4       0.629
  YS02001633           JUNCTION     38.51    74.44     0  02:39       0.466       0.837       2.203
  YS02001649           JUNCTION      0.00   176.57     0  03:59           0        1.72       1.369
  YS02001757           JUNCTION      0.00   422.69     0  04:05           0        3.53       1.950
  YS02001895           JUNCTION      0.00    67.17     0  02:55           0       0.628       0.502
  YS02001625           JUNCTION      0.00    36.24     0  02:59           0       0.397       3.801
  YS02163301           JUNCTION      0.00    41.11     0  02:39           0       0.384       3.228
  YS02163601           JUNCTION      0.11    76.38     0  03:05      0.0031       0.818       2.382
  YS02164001           JUNCTION      0.00    77.04     0  03:05           0       0.808       1.446
  YS02001647           JUNCTION      0.00   113.79     0  03:06           0        1.22       0.988
  YSB1154              JUNCTION      7.22     7.22     0  02:19      0.0297      0.0312       4.859
  YSB6556              JUNCTION      0.00     7.20     0  02:22           0      0.0322       4.012
  YSB1174              JUNCTION      7.25     7.25     0  02:13      0.0218      0.0228       5.960
  YSB1171              JUNCTION      0.00    13.32     0  02:21           0      0.0606      11.646
  YS02006553           JUNCTION      0.00   122.02     0  03:02           0        1.32       1.057
  YS02006561           JUNCTION      0.00   178.54     0  03:00           0        1.86       0.029
  YS02006556           JUNCTION      0.00   122.19     0  03:04           0        1.32       0.757
  YS02006558           JUNCTION     57.33   178.56     0  03:00        0.59        1.89       0.228
  YS02001783           JUNCTION      0.00   178.54     0  03:01           0        1.86       0.066
  YS02001784           JUNCTION      1.06   179.60     0  03:01      0.0299        1.89       0.111
  YS02001786           JUNCTION      0.06   179.64     0  03:01     0.00159        1.89       0.108
  YS02001788           JUNCTION      0.07   179.71     0  03:02       0.002        1.89       0.060
  YS02001790           JUNCTION      0.15   179.86     0  03:02     0.00437        1.89       0.078
  YS02001791           JUNCTION      0.00   179.84     0  03:02           0        1.89       0.038
  YS02001793           JUNCTION      0.00   179.84     0  03:02           0        1.89       0.017
  WS02004139           JUNCTION      0.32   284.51     0  00:20     0.00905        5.33       0.569
  WSC                  OUTFALL       0.00   598.47     0  03:16           0        11.3       0.000
  3                    OUTFALL       0.00   250.55     0  00:00           0       0.398       0.000
  4                    OUTFALL       0.00     0.00     0  00:00           0           0       0.000 ltr
  5                    OUTFALL       0.00     0.00     0  00:00           0           0       0.000 ltr
  JK-storage           STORAGE       0.00   179.84     0  03:02           0        2.04      -1.403
  CC-storage           STORAGE       0.00   290.48     0  03:06           0        3.04      -0.001
  XR-storage           STORAGE     265.36   265.36     0  03:01        6.42        7.02       0.000
  
  
  **********************
  Node Surcharge Summary
  **********************
  
  No nodes were surcharged.
  
  
  *********************
  Node Flooding Summary
  *********************
  
  Flooding refers to all water that overflows a node, whether it ponds or not.
  --------------------------------------------------------------------------
                                                             Total   Maximum
                                 Maximum   Time of Max       Flood    Ponded
                        Hours       Rate    Occurrence      Volume     Depth
  Node                 Flooded       LPS   days hr:min    10^6 ltr    Meters
  --------------------------------------------------------------------------
  XR-storage              4.83     75.36      0  03:01       0.768     0.000
  
  
  **********************
  Storage Volume Summary
  **********************
  
  --------------------------------------------------------------------------------------------------
                         Average     Avg  Evap Exfil       Maximum     Max    Time of Max    Maximum
                          Volume    Pcnt  Pcnt  Pcnt        Volume    Pcnt     Occurrence    Outflow
  Storage Unit           1000 m3    Full  Loss  Loss       1000 m3    Full    days hr:min        LPS
  --------------------------------------------------------------------------------------------------
  JK-storage               0.002       1     0     0         0.151      52       0  00:00     300.00
  CC-storage               0.177       1     0     0         0.379       2       0  04:07     200.00
  XR-storage               0.897      97     0     0         0.926     100       0  03:00     284.79
  
  
  ***********************
  Outfall Loading Summary
  ***********************
  
  -----------------------------------------------------------
                         Flow       Avg       Max       Total
                         Freq      Flow      Flow      Volume
  Outfall Node           Pcnt       LPS       LPS    10^6 ltr
  -----------------------------------------------------------
  WSC                   99.99    469.41    598.47      11.260
  3                     44.33     44.82    250.55       0.398
  4                      0.00      0.00      0.00       0.000
  5                      0.00      0.00      0.00       0.000
  -----------------------------------------------------------
  System                36.08    514.24    670.59      11.658
  
  
  ********************
  Link Flow Summary
  ********************
  
  -----------------------------------------------------------------------------
                                 Maximum  Time of Max   Maximum    Max/    Max/
                                  |Flow|   Occurrence   |Veloc|    Full    Full
  Link                 Type          LPS  days hr:min     m/sec    Flow   Depth
  -----------------------------------------------------------------------------
  WS02003066WSF200     CONDUIT    383.70     0  03:12      2.52    0.06    0.19
  WS02006287WS02006284 CONDUIT    119.59     0  02:24      1.34    0.06    0.17
  WS02006284WS02006280 CONDUIT    119.69     0  02:24      1.59    0.05    0.15
  WS02006280WS02006229 CONDUIT    119.69     0  02:24      2.54    0.03    0.11
  WS02006229WS02006228 CONDUIT    384.43     0  03:02      0.83    1.27    0.98
  WS02006256WS02006235 CONDUIT    166.25     0  00:01      2.58    1.76    1.00
  WS02006253WS02006251 CONDUIT     49.90     0  06:20      0.39    0.15    0.59
  WS02006252WS02006251 CONDUIT    200.33     0  02:50      2.22    0.74    0.76
  WS02006251WS02006249 CONDUIT    213.21     0  02:55      0.93    0.61    0.59
  WS02006249WS02006248 CONDUIT    212.54     0  02:56      1.01    1.16    0.56
  WS02006248WS02006247 CONDUIT    211.98     0  02:55      0.98    0.46    0.58
  WS02006247WS02006245 CONDUIT    211.43     0  03:01      0.93    1.68    0.61
  WS02006245WS02006243 CONDUIT    211.16     0  03:03      0.97    0.62    0.61
  WS02006243WS02006242 CONDUIT    210.91     0  03:05      0.79    0.45    0.70
  WS02006242WS02006240 CONDUIT    210.85     0  03:07      0.71    0.84    0.77
  WS02006240WS02006239 CONDUIT    210.89     0  03:08      0.75    0.66    0.75
  WS02006239WS02006238 CONDUIT    210.99     0  03:09      0.67    0.68    0.85
  WS02006238WS02006235 CONDUIT    211.07     0  03:09      1.25    0.47    0.88
  WS02006235WS02006234 CONDUIT    308.61     0  03:09      0.93    3.26    0.81
  WS02006234WS02006232 CONDUIT    308.78     0  03:10      1.13    0.62    0.87
  WS02006232WS02006231 CONDUIT    308.94     0  03:10      0.92    0.65    0.83
  WS02006231WS02006230 CONDUIT    309.25     0  03:10      1.28    4.69    0.66
  WS02006230WS02006229 CONDUIT    320.15     0  03:11      0.86    7.12    1.00
  WS02006228WS02006109 CONDUIT    384.42     0  03:03      0.77    1.68    0.99
  WS02006116WS02004401 CONDUIT    385.35     0  03:06      0.73    0.53    0.72
  WS02006115WS02006116 CONDUIT    385.79     0  03:05      0.79    0.50    0.63
  WS02006113WS02006111 CONDUIT    393.32     0  03:03      2.19    0.47    0.39
  WS02006112WS02006115 CONDUIT    386.52     0  03:04      0.61    0.23    0.76
  WS02006111WS02006112 CONDUIT    386.23     0  03:04      1.32    0.18    0.65
  WS02006110WS02006113 CONDUIT    385.67     0  03:03      0.97    0.35    0.74
  WS02006109WS02006110 CONDUIT    385.64     0  03:03      0.79    0.74    0.93
  WS02004411WS02004412 CONDUIT    383.88     0  03:10      0.79    0.55    0.60
  WS02004401WS02004402 CONDUIT    385.08     0  03:06      0.77    0.46    0.75
  WS02004413WS02003067 CONDUIT    383.70     0  03:11      0.93    0.16    0.52
  WS02004412WS02004413 CONDUIT    383.75     0  03:11      0.67    0.26    0.69
  WS02004410WS02004411 CONDUIT    384.11     0  03:10      0.81    0.52    0.58
  WS02004409WS02004410 CONDUIT    384.47     0  03:09      0.85    0.50    0.56
  WS02004407WS02004409 CONDUIT    384.95     0  03:08      1.32    0.14    0.40
  WS02004406WS02004407 CONDUIT    384.96     0  03:08      0.85    0.17    0.56
  WS02004405WS02004406 CONDUIT    384.98     0  03:08      0.66    0.76    0.86
  WS02004404WS02004405 CONDUIT    384.97     0  03:07      0.84    3.77    0.86
  WS02004403WS02004404 CONDUIT    384.84     0  03:07      0.74    0.28    0.82
  WS02004402WS02004403 CONDUIT    384.93     0  03:07      0.75    0.55    0.77
  WS02004139WS02001211 CONDUIT    272.16     0  00:20      0.53    0.34    0.49
  WS02004138WS02004139 CONDUIT    284.18     0  00:20      2.39    0.06    0.36
  WS02003067WS02003066 CONDUIT    383.70     0  03:12      1.00    0.12    0.37
  WS02001213WS02003059 CONDUIT    266.59     0  00:24      0.57    0.44    0.63
  WS02001212WS02001213 CONDUIT    270.44     0  00:22      1.16    0.42    0.34
  WS02001211WS02001212 CONDUIT    270.94     0  00:21      0.64    0.21    0.53
  WS02003072WS02003073 CONDUIT    596.67     0  03:15      1.47    1.29    0.39
  WS02003069WS02003072 CONDUIT    596.68     0  03:15      1.40    0.29    0.40
  WS02003060WS02003069 CONDUIT    596.37     0  03:14      1.67    0.23    0.35
  WS02003059WS02003060 CONDUIT    264.92     0  00:25      0.78    0.17    0.53
  HS02004901HS02004770 CONDUIT      5.72     0  02:20      0.03    0.02    0.26
  HS02004876HS02004881 CONDUIT     19.04     0  02:24      0.38    0.20    0.07
  HS02004870HS02004876 CONDUIT     15.05     0  02:24      0.27    0.01    0.08
  HS02004842HS02004848 CONDUIT      3.55     0  02:35      0.02    0.00    0.26
  HS02004837HS02004842 CONDUIT      4.47     0  00:03      0.41    0.00    0.28
  HS02004830HS02004837 CONDUIT     16.76     0  02:22      0.38    0.02    0.06
  HS02004824HS02004830 CONDUIT     16.91     0  02:23      0.42    0.02    0.06
  HS02004817HS02004824 CONDUIT     25.04     0  02:26      0.17    0.01    0.37
  HS02004770HS02004777 CONDUIT     29.28     0  02:20      0.15    0.05    0.28
  HS02004799HS02004480 CONDUIT     73.29     0  02:22      0.44    0.09    0.24
  HS02004792HS02004799 CONDUIT     67.04     0  02:21      0.51    0.04    0.19
  HS02004788HS02004792 CONDUIT     39.16     0  02:23      0.68    0.03    0.08
  HS02004785HS02004788 CONDUIT     28.93     0  02:23      0.39    0.22    0.11
  HS02004777HS02004785 CONDUIT     28.89     0  02:21      0.19    0.04    0.22
  HS02004480HS02004478 CONDUIT     86.45     0  02:23      0.76    0.36    0.16
  HS02004479HS02004480 CONDUIT     13.42     0  02:25      0.15    0.01    0.24
  HS02004862HS02004870 CONDUIT     10.82     0  02:25      0.36    0.01    0.04
  HS02004848HS02004852 CONDUIT      3.98     0  02:23      0.23    0.00    0.02
  HS02004856HS02004862 CONDUIT      7.09     0  02:24      0.26    0.01    0.04
  HS02004852HS02004856 CONDUIT      3.95     0  02:25      0.07    0.00    0.08
  HS02004802HS02004478 CONDUIT     33.62     0  02:27      0.23    0.03    0.21
  HS02004478WS02006287 CONDUIT    119.60     0  02:24      1.03    0.03    0.13
  HS02004817HS02004807 CONDUIT     25.87     0  02:29      0.08    0.02    0.46
  HS02004807HS02004802 CONDUIT     33.47     0  02:26      0.19    0.06    0.25
  YS02001759YS02001757 CONDUIT    112.44     0  03:00      0.15    0.08    0.91
  YS02001762YS02001759 CONDUIT     92.00     0  03:59      0.17    0.11    0.83
  YS02001765YS02001762 CONDUIT     58.72     0  04:01      0.22    0.06    0.79
  YS02001770YS02001767 CONDUIT     61.40     0  02:59      0.29    0.24    0.72
  YS02001774YS02001770 CONDUIT     28.52     0  02:31      0.11    0.02    0.74
  YS02001779YS02001774 CONDUIT     15.77     0  04:05      0.06    0.01    0.66
  YS02001649YS02001757 CONDUIT    168.98     0  03:08      0.23    0.10    0.89
  YS02001767YS02001765 CONDUIT     90.69     0  03:58      0.25    0.11    0.75
  YS02006561YS02001783 CONDUIT    178.54     0  03:01      1.54    0.09    0.28
  YS02001783YS02001784 CONDUIT    178.54     0  03:01      1.03    0.25    0.38
  YS02001784YS02001785 CONDUIT    179.59     0  03:01      1.07    0.42    0.37
  YS02001788YS02001790 CONDUIT    179.70     0  03:02      1.62    0.13    0.27
  YS02001790YS02001791 CONDUIT    179.84     0  03:02      1.85    0.20    0.25
  YS02001791YS02001793 CONDUIT    179.84     0  03:02      3.33    0.08    0.16
  YS02001910YS02001907 CONDUIT     55.14     0  03:01      0.49    0.03    0.63
  YS02001786YS02001788 CONDUIT    179.64     0  03:02      1.47    0.35    0.29
  YS02001915YS02001910 CONDUIT     55.19     0  03:01      0.44    0.03    0.42
  YS02001918YS02001915 CONDUIT     19.11     0  03:04      0.44    0.01    0.19
  YS02001923YS02001920 CONDUIT     16.26     0  03:02      0.33    0.01    0.11
  YS02001926YS02001923 CONDUIT     16.23     0  03:02      0.39    0.02    0.10
  YS02001929YS02001926 CONDUIT     16.23     0  03:01      0.40    0.01    0.10
  YS02001920YS02001918 CONDUIT     19.12     0  03:03      0.36    0.02    0.12
  YS02001629YS02163301 CONDUIT     41.11     0  02:39      0.09    0.05    0.69
  YS02001619YS02001622 CONDUIT     35.80     0  02:55      0.55    0.05    0.30
  YS02001622YS02001625 CONDUIT     36.24     0  02:59      0.18    0.02    0.47
  YS02001625YS02001629 CONDUIT     37.37     0  02:39      0.18    0.02    0.45
  YS02163301YS02001633 CONDUIT     39.41     0  02:39      0.08    0.04    0.73
  YS02163601YS02164001 CONDUIT     77.04     0  03:05      0.12    0.07    0.79
  YS02164001YS02001641 CONDUIT     76.18     0  03:12      0.12    0.10    0.77
  YS02001641YS02001644 CONDUIT     74.42     0  03:14      0.12    0.24    0.78
  YS02001647YS02001649 CONDUIT    115.92     0  03:04      0.19    0.06    0.72
  YS02006553YS02006556 CONDUIT    122.19     0  03:04      0.20    0.10    0.71
  YS02006556YS02006558 CONDUIT    122.29     0  03:04      0.20    0.10    0.74
  YSB6556YSB1171       CONDUIT      7.24     0  02:26      0.04    0.01    0.50
  YS02001907YS02006553 CONDUIT    122.02     0  03:02      0.17    0.14    0.81
  YS02006558YS02006561 CONDUIT    178.54     0  03:00      1.98    0.39    0.36
  YS02001633YS02163601 CONDUIT     76.27     0  03:05      0.12    0.08    0.78
  YS02001644YS02001647 CONDUIT    113.79     0  03:06      0.20    0.07    0.70
  YS02001745YS02001748 CONDUIT     39.91     0  03:01      1.21    0.02    0.09
  YS02001748YS02001751 CONDUIT     50.63     0  03:55      0.95    0.03    0.24
  YS02001751YS02001754 CONDUIT    122.10     0  04:08      0.86    0.06    0.45
  YS02001754YS02001757 CONDUIT    184.53     0  04:13      0.33    0.07    0.79
  YS02001882YS02001884 CONDUIT      2.24     0  02:12      0.06    0.00    0.35
  YS02001884YS02001887 CONDUIT      6.65     0  02:08      0.05    0.01    0.45
  YS02001890YS02001895 CONDUIT     67.17     0  02:55      0.22    0.03    0.42
  YS02001895YS02001898 CONDUIT     67.11     0  02:56      0.42    0.12    0.28
  YS02001898YS02001901 CONDUIT     67.14     0  02:57      0.26    0.04    0.36
  YS02001901YS02001904 CONDUIT     66.84     0  02:57      0.22    0.10    0.41
  YS02001904YS02001907 CONDUIT     67.05     0  03:02      0.14    0.02    0.57
  YS02001887YS02001890 CONDUIT     67.36     0  02:53      0.17    0.12    0.50
  YS02001652YS02001649 CONDUIT     73.77     0  03:52      0.26    0.04    0.72
  YS02001655YS02001652 CONDUIT     59.65     0  03:52      0.92    0.03    0.48
  YS02001658YS02001655 CONDUIT     47.72     0  02:54      1.08    0.02    0.23
  YS02001661YS02001658 CONDUIT     47.72     0  02:54      1.22    0.02    0.10
  YS02001664YS02001661 CONDUIT     47.72     0  02:53      0.84    0.01    0.13
  YSB1154YSB6556       CONDUIT      7.20     0  02:22      0.19    0.01    0.39
  YSB1174YSB1171       CONDUIT      6.78     0  02:15      0.04    0.01    0.51
  YSB1171HS02004479    CONDUIT     13.32     0  02:24      0.54    0.01    0.39
  HS02004881HS02006253 CONDUIT     21.37     0  02:23      1.32    0.00    0.07
  YS02001793JiankangQianchi CONDUIT    179.84     0  03:02     11.14    0.01    0.50
  YS02001757CaochengTiaoxuchi CONDUIT    290.48     0  03:06      0.71    0.13    0.55
  WSF200WS02003060     CONDUIT    383.69     0  03:12      1.54    0.09    0.27
  1                    CONDUIT    598.47     0  03:16      2.89    0.21    0.31
  2                    CONDUIT      0.00     0  00:00      0.00    0.00    0.00
  3                    CONDUIT    250.55     0  00:00      8.26    0.40    0.46
  4                    CONDUIT      0.00     0  00:00      0.00    0.00    0.00
  CC-Pump-1            PUMP       200.00     0  02:50              1.00
  CC-Pump-2            PUMP         0.00     0  00:00              0.00
  JK-Pump-1            PUMP       300.00     0  00:00              1.00
  JK-Pump-2            PUMP         1.36     0  00:16              0.00
  XR-Pump-1            PUMP        95.00     0  00:00              1.00
  XR-Pump-2            PUMP        95.00     0  01:40              1.00
  XR-Pump-3            PUMP        95.00     0  00:20              1.00
  XR-Pump-4            PUMP        95.00     0  01:40              1.00
  
  
  ***************************
  Flow Classification Summary
  ***************************
  
  -------------------------------------------------------------------------------------
                      Adjusted    ---------- Fraction of Time in Flow Class ---------- 
                       /Actual         Up    Down  Sub   Sup   Up    Down  Norm  Inlet 
  Conduit               Length    Dry  Dry   Dry   Crit  Crit  Crit  Crit  Ltd   Ctrl  
  -------------------------------------------------------------------------------------
  WS02003066WSF200        1.00   0.07  0.00  0.00  0.00  0.93  0.00  0.00  0.77  0.00
  WS02006287WS02006284    1.00   0.05  0.02  0.00  0.75  0.19  0.00  0.00  0.81  0.00
  WS02006284WS02006280    1.00   0.05  0.00  0.00  0.00  0.00  0.00  0.95  0.00  0.00
  WS02006280WS02006229    1.00   0.05  0.00  0.00  0.00  0.00  0.00  0.95  0.00  0.00
  WS02006229WS02006228    1.00   0.00  0.00  0.00  0.98  0.00  0.00  0.02  0.00  0.00
  WS02006256WS02006235    1.00   0.00  0.00  0.00  1.00  0.00  0.00  0.00  0.00  0.00
  WS02006253WS02006251    1.00   0.03  0.01  0.00  0.95  0.00  0.00  0.00  0.00  0.00
  WS02006252WS02006251    1.00   0.10  0.00  0.00  0.00  0.00  0.90  0.00  0.00  0.00
  WS02006251WS02006249    1.00   0.00  0.00  0.00  1.00  0.00  0.00  0.00  0.32  0.00
  WS02006249WS02006248    1.00   0.00  0.02  0.00  0.87  0.00  0.10  0.00  0.00  0.00
  WS02006248WS02006247    1.00   0.03  0.00  0.00  0.97  0.00  0.00  0.00  0.22  0.00
  WS02006247WS02006245    1.00   0.02  0.00  0.00  0.98  0.00  0.00  0.00  0.00  0.00
  WS02006245WS02006243    1.00   0.02  0.00  0.00  0.93  0.00  0.00  0.05  0.03  0.00
  WS02006243WS02006242    1.00   0.01  0.00  0.00  0.99  0.00  0.00  0.00  0.29  0.00
  WS02006242WS02006240    1.00   0.00  0.00  0.00  1.00  0.00  0.00  0.00  0.00  0.00
  WS02006240WS02006239    1.00   0.00  0.00  0.00  0.95  0.00  0.00  0.05  0.01  0.00
  WS02006239WS02006238    1.00   0.00  0.00  0.00  1.00  0.00  0.00  0.00  0.01  0.00
  WS02006238WS02006235    1.00   0.00  0.00  0.00  1.00  0.00  0.00  0.00  0.00  0.00
  WS02006235WS02006234    1.00   0.00  0.00  0.00  0.94  0.00  0.06  0.00  0.00  0.00
  WS02006234WS02006232    1.00   0.00  0.00  0.00  1.00  0.00  0.00  0.00  0.17  0.00
  WS02006232WS02006231    1.00   0.00  0.00  0.00  0.99  0.00  0.01  0.00  0.00  0.00
  WS02006231WS02006230    1.00   0.00  0.00  0.00  0.19  0.00  0.80  0.00  0.00  0.00
  WS02006230WS02006229    1.00   0.00  0.00  0.00  0.98  0.00  0.00  0.02  0.01  0.00
  WS02006228WS02006109    1.00   0.00  0.00  0.00  1.00  0.00  0.00  0.00  0.00  0.00
  WS02006116WS02004401    1.00   0.03  0.00  0.00  0.97  0.00  0.00  0.00  0.00  0.00
  WS02006115WS02006116    1.00   0.03  0.00  0.00  0.96  0.00  0.00  0.01  0.00  0.00
  WS02006113WS02006111    1.00   0.02  0.00  0.00  0.00  0.97  0.00  0.00  0.14  0.00
  WS02006112WS02006115    1.00   0.03  0.00  0.00  0.97  0.00  0.00  0.00  0.00  0.00
  WS02006111WS02006112    1.00   0.03  0.00  0.00  0.97  0.00  0.00  0.00  0.98  0.00
  WS02006110WS02006113    1.00   0.01  0.01  0.00  0.98  0.00  0.00  0.00  0.00  0.00
  WS02006109WS02006110    1.00   0.00  0.01  0.00  0.98  0.00  0.01  0.00  0.00  0.00
  WS02004411WS02004412    1.00   0.05  0.00  0.00  0.95  0.00  0.00  0.00  0.00  0.00
  WS02004401WS02004402    1.00   0.03  0.00  0.00  0.97  0.00  0.00  0.00  0.00  0.00
  WS02004413WS02003067    1.00   0.05  0.02  0.00  0.00  0.00  0.94  0.00  0.00  0.00
  WS02004412WS02004413    1.00   0.05  0.00  0.00  0.95  0.00  0.00  0.00  0.03  0.00
  WS02004410WS02004411    1.00   0.05  0.00  0.00  0.95  0.00  0.00  0.00  0.04  0.00
  WS02004409WS02004410    1.00   0.05  0.00  0.00  0.95  0.00  0.00  0.00  0.04  0.00
  WS02004407WS02004409    1.00   0.05  0.00  0.00  0.95  0.00  0.00  0.00  0.89  0.00
  WS02004406WS02004407    1.00   0.00  0.04  0.00  0.96  0.00  0.00  0.00  0.00  0.00
  WS02004405WS02004406    1.00   0.00  0.00  0.00  1.00  0.00  0.00  0.00  0.00  0.00
  WS02004404WS02004405    1.00   0.00  0.00  0.00  1.00  0.00  0.00  0.00  0.00  0.00
  WS02004403WS02004404    1.00   0.00  0.03  0.00  0.97  0.00  0.00  0.00  0.01  0.00
  WS02004402WS02004403    1.00   0.03  0.00  0.00  0.97  0.00  0.00  0.00  0.00  0.00
  WS02004139WS02001211    1.00   0.00  0.00  0.00  0.99  0.00  0.01  0.00  0.00  0.00
  WS02004138WS02004139    1.00   0.00  0.00  0.00  0.99  0.01  0.00  0.00  1.00  0.00
  WS02003067WS02003066    1.00   0.06  0.01  0.00  0.93  0.00  0.00  0.00  0.00  0.00
  WS02001213WS02003059    1.00   0.00  0.01  0.00  0.99  0.00  0.00  0.00  0.00  0.00
  WS02001212WS02001213    1.00   0.01  0.00  0.00  0.72  0.00  0.27  0.00  0.00  0.00
  WS02001211WS02001212    1.00   0.00  0.01  0.00  0.99  0.00  0.00  0.00  0.00  0.00
  WS02003072WS02003073    1.00   0.00  0.00  0.00  0.00  0.00  0.00  1.00  0.00  0.00
  WS02003069WS02003072    1.00   0.00  0.00  0.00  0.99  0.01  0.00  0.00  0.41  0.00
  WS02003060WS02003069    1.00   0.00  0.00  0.00  0.99  0.01  0.00  0.00  0.24  0.00
  WS02003059WS02003060    1.00   0.00  0.00  0.00  0.99  0.01  0.00  0.00  0.02  0.00
  HS02004901HS02004770    1.00   0.05  0.00  0.00  0.95  0.00  0.00  0.00  0.03  0.00
  HS02004876HS02004881    1.00   0.03  0.00  0.00  0.97  0.00  0.00  0.00  0.00  0.00
  HS02004870HS02004876    1.00   0.01  0.00  0.00  0.99  0.00  0.00  0.00  0.95  0.00
  HS02004842HS02004848    1.00   0.00  0.05  0.00  0.95  0.00  0.00  0.00  0.71  0.00
  HS02004837HS02004842    1.00   0.00  0.00  0.00  0.99  0.01  0.00  0.00  0.11  0.00
  HS02004830HS02004837    1.00   0.00  0.00  0.00  1.00  0.00  0.00  0.00  0.99  0.00
  HS02004824HS02004830    1.00   0.00  0.00  0.00  1.00  0.00  0.00  0.00  0.00  0.00
  HS02004817HS02004824    1.00   0.00  0.00  0.00  1.00  0.00  0.00  0.00  1.00  0.00
  HS02004770HS02004777    1.00   0.00  0.05  0.00  0.95  0.00  0.00  0.00  0.07  0.00
  HS02004799HS02004480    1.00   0.00  0.03  0.00  0.93  0.00  0.03  0.00  0.00  0.00
  HS02004792HS02004799    1.00   0.00  0.00  0.00  0.98  0.02  0.00  0.00  0.98  0.00
  HS02004788HS02004792    1.00   0.00  0.00  0.00  0.99  0.01  0.00  0.00  0.98  0.00
  HS02004785HS02004788    1.00   0.00  0.00  0.00  1.00  0.00  0.00  0.00  0.00  0.00
  HS02004777HS02004785    1.00   0.00  0.00  0.00  1.00  0.00  0.00  0.00  0.21  0.00
  HS02004480HS02004478    1.00   0.06  0.00  0.00  0.77  0.00  0.00  0.17  0.00  0.00
  HS02004479HS02004480    1.00   0.03  0.00  0.00  0.97  0.00  0.00  0.00  0.16  0.00
  HS02004862HS02004870    1.00   0.00  0.00  0.00  1.00  0.00  0.00  0.00  0.06  0.00
  HS02004848HS02004852    1.00   0.05  0.00  0.00  0.95  0.00  0.00  0.00  0.69  0.00
  HS02004856HS02004862    1.00   0.00  0.08  0.00  0.92  0.00  0.00  0.00  0.73  0.00
  HS02004852HS02004856    1.00   0.05  0.01  0.00  0.94  0.00  0.00  0.00  0.83  0.00
  HS02004802HS02004478    1.00   0.05  0.01  0.00  0.94  0.00  0.00  0.00  0.00  0.00
  HS02004478WS02006287    1.00   0.06  0.00  0.00  0.94  0.00  0.00  0.00  0.81  0.00
  HS02004817HS02004807    1.00   0.00  0.05  0.00  0.95  0.00  0.00  0.00  0.00  0.00
  HS02004807HS02004802    1.00   0.05  0.00  0.00  0.94  0.00  0.00  0.00  0.01  0.00
  YS02001759YS02001757    1.00   0.00  0.00  0.00  1.00  0.00  0.00  0.00  0.17  0.00
  YS02001762YS02001759    1.00   0.00  0.00  0.00  1.00  0.00  0.00  0.00  0.05  0.00
  YS02001765YS02001762    1.00   0.00  0.00  0.00  1.00  0.00  0.00  0.00  0.23  0.00
  YS02001770YS02001767    1.00   0.00  0.00  0.00  1.00  0.00  0.00  0.00  0.00  0.00
  YS02001774YS02001770    1.00   0.00  0.06  0.00  0.94  0.00  0.00  0.00  0.07  0.00
  YS02001779YS02001774    1.00   0.00  0.00  0.00  1.00  0.00  0.00  0.00  0.28  0.00
  YS02001649YS02001757    1.00   0.00  0.00  0.00  1.00  0.00  0.00  0.00  0.19  0.00
  YS02001767YS02001765    1.00   0.00  0.00  0.00  1.00  0.00  0.00  0.00  0.01  0.00
  YS02006561YS02001783    1.00   0.08  0.00  0.00  0.00  0.92  0.00  0.00  0.72  0.00
  YS02001783YS02001784    1.00   0.00  0.08  0.00  0.92  0.00  0.00  0.00  0.09  0.00
  YS02001784YS02001785    1.00   0.00  0.00  0.00  1.00  0.00  0.00  0.00  0.26  0.00
  YS02001788YS02001790    1.00   0.00  0.00  0.00  0.09  0.91  0.00  0.00  0.99  0.00
  YS02001790YS02001791    1.00   0.00  0.00  0.00  0.02  0.98  0.00  0.00  0.37  0.00
  YS02001791YS02001793    1.00   0.00  0.00  0.00  0.00  1.00  0.00  0.00  0.00  0.00
  YS02001910YS02001907    1.00   0.00  0.00  0.00  0.97  0.00  0.00  0.03  0.13  0.00
  YS02001786YS02001788    1.00   0.00  0.00  0.00  0.09  0.91  0.00  0.00  0.00  0.00
  YS02001915YS02001910    1.00   0.00  0.00  0.00  0.99  0.01  0.00  0.00  0.25  0.00
  YS02001918YS02001915    1.00   0.00  0.01  0.00  0.98  0.02  0.00  0.00  0.81  0.00
  YS02001923YS02001920    1.00   0.00  0.00  0.00  1.00  0.00  0.00  0.00  1.00  0.00
  YS02001926YS02001923    1.00   0.00  0.04  0.00  0.00  0.00  0.96  0.00  0.00  0.00
  YS02001929YS02001926    1.00   0.00  0.05  0.00  0.95  0.00  0.00  0.00  0.87  0.00
  YS02001920YS02001918    1.00   0.00  0.01  0.00  0.99  0.00  0.00  0.00  0.00  0.00
  YS02001629YS02163301    1.00   0.07  0.00  0.00  0.92  0.00  0.00  0.00  0.00  0.00
  YS02001619YS02001622    1.00   0.05  0.00  0.00  0.95  0.00  0.00  0.00  0.00  0.00
  YS02001622YS02001625    1.00   0.05  0.00  0.00  0.95  0.00  0.00  0.00  0.14  0.00
  YS02001625YS02001629    1.00   0.05  0.03  0.00  0.90  0.00  0.02  0.00  0.00  0.00
  YS02163301YS02001633    1.00   0.00  0.07  0.00  0.93  0.00  0.00  0.00  0.00  0.00
  YS02163601YS02164001    1.00   0.00  0.04  0.00  0.96  0.00  0.00  0.00  0.00  0.00
  YS02164001YS02001641    1.00   0.01  0.03  0.00  0.96  0.00  0.00  0.00  0.07  0.00
  YS02001641YS02001644    1.00   0.00  0.01  0.00  0.99  0.00  0.00  0.00  0.00  0.00
  YS02001647YS02001649    1.00   0.00  0.08  0.00  0.92  0.00  0.00  0.00  0.01  0.00
  YS02006553YS02006556    1.00   0.02  0.00  0.00  0.98  0.00  0.00  0.00  0.03  0.00
  YS02006556YS02006558    1.00   0.00  0.00  0.00  1.00  0.00  0.00  0.00  0.00  0.00
  YSB6556YSB1171          1.00   0.03  0.02  0.00  0.95  0.00  0.00  0.00  0.00  0.00
  YS02001907YS02006553    1.00   0.00  0.03  0.00  0.97  0.00  0.00  0.00  0.00  0.00
  YS02006558YS02006561    1.00   0.08  0.00  0.00  0.00  0.92  0.00  0.00  0.71  0.00
  YS02001633YS02163601    1.00   0.00  0.01  0.00  0.99  0.00  0.00  0.00  0.20  0.00
  YS02001644YS02001647    1.00   0.00  0.08  0.00  0.92  0.00  0.00  0.00  0.00  0.00
  YS02001745YS02001748    1.00   0.00  0.00  0.00  0.00  0.00  0.00  1.00  0.00  0.00
  YS02001748YS02001751    1.00   0.00  0.00  0.00  0.97  0.03  0.00  0.00  0.64  0.00
  YS02001751YS02001754    1.00   0.00  0.00  0.00  0.91  0.00  0.00  0.09  0.03  0.00
  YS02001754YS02001757    1.00   0.00  0.00  0.00  0.99  0.01  0.00  0.00  0.27  0.00
  YS02001882YS02001884    1.00   0.07  0.00  0.00  0.93  0.00  0.00  0.00  0.00  0.00
  YS02001884YS02001887    1.00   0.04  0.01  0.00  0.95  0.00  0.00  0.00  0.00  0.00
  YS02001890YS02001895    1.00   0.00  0.07  0.00  0.92  0.00  0.00  0.00  0.00  0.00
  YS02001895YS02001898    1.00   0.08  0.00  0.00  0.92  0.00  0.01  0.00  0.00  0.00
  YS02001898YS02001901    1.00   0.07  0.01  0.00  0.92  0.00  0.00  0.00  0.02  0.00
  YS02001901YS02001904    1.00   0.07  0.00  0.00  0.93  0.00  0.00  0.00  0.00  0.00
  YS02001904YS02001907    1.00   0.00  0.07  0.00  0.93  0.00  0.00  0.00  0.00  0.00
  YS02001887YS02001890    1.00   0.00  0.00  0.00  0.97  0.00  0.03  0.00  0.00  0.00
  YS02001652YS02001649    1.00   0.00  0.00  0.00  1.00  0.00  0.00  0.00  0.27  0.00
  YS02001655YS02001652    1.00   0.00  0.00  0.00  0.91  0.00  0.00  0.09  0.03  0.00
  YS02001658YS02001655    1.00   0.00  0.06  0.00  0.91  0.03  0.00  0.00  0.79  0.00
  YS02001661YS02001658    1.00   0.06  0.00  0.00  0.00  0.94  0.00  0.00  0.74  0.00
  YS02001664YS02001661    1.00   0.05  0.00  0.00  0.95  0.00  0.00  0.00  0.86  0.00
  YSB1154YSB6556          1.00   0.05  0.00  0.00  0.95  0.00  0.00  0.00  0.02  0.00
  YSB1174YSB1171          1.00   0.04  0.01  0.00  0.96  0.00  0.00  0.00  0.00  0.00
  YSB1171HS02004479       1.00   0.03  0.00  0.00  0.96  0.00  0.00  0.00  0.13  0.00
  HS02004881HS02006253    1.00   0.04  0.00  0.00  0.66  0.00  0.00  0.29  0.45  0.00
  YS02001793JiankangQianchi    1.00   0.00  0.00  0.00  0.03  0.97  0.00  0.00  0.02  0.00
  YS02001757CaochengTiaoxuchi    1.00   0.00  0.10  0.00  0.90  0.00  0.00  0.00  0.00  0.00
  WSF200WS02003060        1.00   0.00  0.07  0.00  0.84  0.09  0.00  0.00  0.28  0.00
  1                       1.00   0.00  0.00  0.00  0.00  1.00  0.00  0.00  0.49  0.00
  2                       1.00   1.00  0.00  0.00  0.00  0.00  0.00  0.00  0.00  0.00
  3                       1.00   0.56  0.00  0.00  0.00  0.44  0.00  0.00  0.30  0.00
  4                       1.00   1.00  0.00  0.00  0.00  0.00  0.00  0.00  0.00  0.00
  
  
  *************************
  Conduit Surcharge Summary
  *************************
  
  ----------------------------------------------------------------------------
                                                           Hours        Hours 
                         --------- Hours Full --------   Above Full   Capacity
  Conduit                Both Ends  Upstream  Dnstream   Normal Flow   Limited
  ----------------------------------------------------------------------------
  WS02006229WS02006228        0.01      0.01      0.01      2.47         0.01
  WS02006256WS02006235        5.54      5.55      6.29      2.07         0.01
  WS02006249WS02006248        0.01      0.01      0.01      3.51         0.01
  WS02006247WS02006245        0.01      0.01      0.01      3.59         0.01
  WS02006235WS02006234        0.01      0.01      0.01      5.56         0.01
  WS02006231WS02006230        0.01      0.01      0.01      5.58         0.01
  WS02006230WS02006229        0.52      1.82      0.52      5.70         0.52
  WS02006228WS02006109        0.01      0.24      0.01      3.99         0.01
  WS02006111WS02006112        0.01      0.01      3.12      0.01         0.01
  WS02006109WS02006110        0.01      0.01      0.25      0.01         0.01
  WS02004404WS02004405        0.01      0.01      0.01      5.46         0.01
  WS02003072WS02003073        0.01      0.01      0.01      3.86         0.01
  YS02001793JiankangQianchi        0.01      0.01      0.09      0.01         0.01
  
  
  ***************
  Pumping Summary
  ***************
  
  ---------------------------------------------------------------------------------------------------------
                                                  Min       Avg       Max     Total     Power    % Time Off
                        Percent   Number of      Flow      Flow      Flow    Volume     Usage    Pump Curve
  Pump                 Utilized   Start-Ups       LPS       LPS       LPS  10^6 ltr     Kw-hr    Low   High
  ---------------------------------------------------------------------------------------------------------
  CC-Pump-1               66.19           2      0.00    171.67    200.00     3.043     12.38    0.0  100.0
  CC-Pump-2                0.00           0      0.00      0.00      0.00     0.000      0.00    0.0    0.0
  JK-Pump-1              100.00           1      0.00     96.44    300.00     2.065     39.22    0.0    0.0
  JK-Pump-2                4.25           1      0.00      1.30      1.36     0.002      0.03    0.0    0.0
  XR-Pump-1               27.66           2      0.00     78.83     95.00     0.656      6.50    0.0    0.0
  XR-Pump-2               78.72           2      0.00     93.19     95.00     2.023     10.61    0.0    0.0
  XR-Pump-3               25.53           2      0.00     70.65     95.00     0.570      5.57    0.0    0.0
  XR-Pump-4               82.97           3      0.00     92.71     95.00     2.080     11.20    0.0    0.0
  

  Analysis begun on:  Thu Jan  6 02:14:52 2022
  Analysis ended on:  Thu Jan  6 02:14:54 2022
  Total elapsed time: 00:00:02