
  EPA STORM WATER MANAGEMENT MODEL - VERSION 5.1 (Build 5.3.0.dev0)
  --------------------------------------------------------------

  WARNING 04: minimum elevation drop used for Conduit WS02004404WS02004405
  WARNING 03: negative offset ignored for Link YS02001904YS02001907
  
  *********************************************************
  NOTE: The summary statistics displayed in this report are
  based on results found at every computational time step,  
  not just on results from each reporting time step.
  *********************************************************
  
  ****************
  Analysis Options
  ****************
  Flow Units ............... LPS
  Process Models:
    Rainfall/Runoff ........ YES
    RDII ................... NO
    Snowmelt ............... NO
    Groundwater ............ NO
    Flow Routing ........... YES
    Ponding Allowed ........ NO
    Water Quality .......... NO
  Infiltration Method ...... HORTON
  Flow Routing Method ...... DYNWAVE
  Surcharge Method ......... EXTRAN
  Starting Date ............ 08/28/2015 08:00:00
  Ending Date .............. 08/28/2015 15:50:00
  Antecedent Dry Days ...... 8.0
  Report Time Step ......... 00:01:00
  Wet Time Step ............ 00:01:00
  Dry Time Step ............ 00:01:00
  Routing Time Step ........ 5.00 sec
  Variable Time Step ....... YES
  Maximum Trials ........... 8
  Number of Threads ........ 4
  Head Tolerance ........... 0.001500 m
  
  
  **************************        Volume         Depth
  Runoff Quantity Continuity     hectare-m            mm
  **************************     ---------       -------
  Total Precipitation ......         2.691         5.892
  Evaporation Loss .........         0.000         0.000
  Infiltration Loss ........         0.676         1.480
  Surface Runoff ...........         1.133         2.480
  Final Storage ............         0.883         1.933
  Continuity Error (%) .....        -0.018
  
  
  **************************        Volume        Volume
  Flow Routing Continuity        hectare-m      10^6 ltr
  **************************     ---------     ---------
  Dry Weather Inflow .......         0.616         6.165
  Wet Weather Inflow .......         1.132        11.321
  Groundwater Inflow .......         0.000         0.000
  RDII Inflow ..............         0.000         0.000
  External Inflow ..........         0.102         1.024
  External Outflow .........         1.369        13.692
  Flooding Loss ............         0.144         1.445
  Evaporation Loss .........         0.000         0.000
  Exfiltration Loss ........         0.000         0.000
  Initial Stored Volume ....         0.076         0.761
  Final Stored Volume ......         0.420         4.199
  Continuity Error (%) .....        -0.342
  
  
  *************************
  Highest Continuity Errors
  *************************
  Node HS02004842 (28.52%)
  Node YS02001884 (22.91%)
  Node YS02001774 (14.15%)
  Node YSB1171 (6.99%)
  Node HS02004901 (5.52%)
  
  
  ***************************
  Time-Step Critical Elements
  ***************************
  Link WS02006252WS02006251 (83.21%)
  Link 3 (10.86%)
  Link WS02006280WS02006229 (2.14%)
  
  
  ********************************
  Highest Flow Instability Indexes
  ********************************
  Link WS02006113WS02006111 (43)
  Link WS02006111WS02006112 (33)
  Link YS02006558YS02006561 (10)
  Link YS02001629YS02163301 (9)
  Link YS02001641YS02001644 (9)
  
  
  *************************
  Routing Time Step Summary
  *************************
  Minimum Time Step           :     0.10 sec
  Average Time Step           :     0.89 sec
  Maximum Time Step           :     5.00 sec
  Percent in Steady State     :    -0.00
  Average Iterations per Step :     2.83
  Percent Not Converging      :     9.98
  
  
  ***************************
  Subcatchment Runoff Summary
  ***************************
  
  ------------------------------------------------------------------------------------------------------------------------------
                            Total      Total      Total      Total     Imperv       Perv      Total       Total     Peak  Runoff
                           Precip      Runon       Evap      Infil     Runoff     Runoff     Runoff      Runoff   Runoff   Coeff
  Subcatchment                 mm         mm         mm         mm         mm         mm         mm    10^6 ltr      LPS
  ------------------------------------------------------------------------------------------------------------------------------
  sub0                       5.89       0.00       0.00       0.41       4.21       0.00       4.21        0.00     1.47   0.715
  sub1                       5.89       0.00       0.00       0.65       3.99       0.00       3.99        0.03     7.65   0.677
  sub2                       5.89       0.00       0.00       2.18       2.81       0.00       2.81        0.03     6.74   0.476
  sub3                       5.89       0.00       0.00       2.18       2.77       0.00       2.77        0.06    13.82   0.470
  sub4                       5.89       0.00       0.00       0.65       3.85       0.00       3.85        0.08    15.45   0.654
  sub5                       5.89       0.00       0.00       0.41       4.17       0.00       4.17        0.05    13.60   0.707
  sub7                       5.89       0.00       0.00       0.53       4.11       0.00       4.11        0.01     4.82   0.697
  sub8                       5.89       0.00       0.00       0.53       4.10       0.00       4.10        0.03     8.49   0.696
  sub9                       5.89       0.00       0.00       0.53       4.10       0.00       4.10        0.02     6.29   0.695
  sub10                      5.89       0.00       0.00       0.47       4.13       0.00       4.13        0.05    13.58   0.701
  sub11                      5.89       0.00       0.00       0.47       4.15       0.00       4.15        0.05    15.97   0.704
  sub12                      5.89       0.00       0.00       0.77       3.94       0.00       3.94        0.03    13.59   0.668
  sub14                      5.89       0.00       0.00       0.53       4.09       0.00       4.09        0.04    12.29   0.695
  sub15                      5.89       0.00       0.00       1.77       3.15       0.00       3.15        0.05    16.66   0.534
  sub16                      5.89       0.00       0.00       1.94       3.03       0.00       3.03        0.03    11.93   0.514
  sub17                      5.89       0.00       0.00       1.89       3.07       0.00       3.07        0.03     9.64   0.522
  sub22                      5.89       0.00       0.00       2.53       2.57       0.00       2.57        0.16    54.70   0.436
  sub23                      5.89       0.00       0.00       2.18       2.84       0.00       2.84        0.14    46.61   0.482
  sub60                      5.89       0.00       0.00       0.71       2.76       0.00       2.76        0.84    76.77   0.469
  sub61                      5.89       0.00       0.00       1.00       2.95       0.00       2.95        0.91    96.90   0.501
  sub62                      5.89       0.00       0.00       0.47       3.17       0.00       3.17        0.97    98.85   0.538
  sub63                      5.89       0.00       0.00       1.71       2.63       0.00       2.63        0.80    90.67   0.447
  sub64                      5.89       0.00       0.00       0.88       2.64       0.00       2.64        0.80    72.89   0.448
  sub65                      5.89       0.00       0.00       0.77       2.67       0.00       2.67        0.82    73.94   0.453
  sub66                      5.89       0.00       0.00       1.71       2.30       0.00       2.30        0.71    66.93   0.391
  sub67                      5.89       0.00       0.00       0.47       3.49       0.00       3.49        1.08   127.64   0.592
  sub68                      5.89       0.00       0.00       0.82       3.14       0.00       3.14        0.97   107.31   0.534
  sub69                      5.89       0.00       0.00       0.88       3.40       0.00       3.40        0.79   107.30   0.576
  sub70                      5.89       3.47       0.00       3.18       4.16       0.00       4.16        0.95    85.44   0.445
  sub71                      5.89       0.00       0.00       0.47       3.03       0.00       3.03        0.72    68.84   0.514
  sub72                      5.89       0.00       0.00       0.41       2.13       0.00       2.13        0.43    32.41   0.362
  sub73                      5.89       4.05       0.00       3.38       4.23       0.00       4.23        0.99    73.37   0.426
  sub74                      5.89       0.00       0.00       4.42       1.02       0.00       1.02        0.41    60.02   0.174
  
  
  ******************
  Node Depth Summary
  ******************
  
  ---------------------------------------------------------------------------------
                                 Average  Maximum  Maximum  Time of Max    Reported
                                   Depth    Depth      HGL   Occurrence   Max Depth
  Node                 Type       Meters   Meters   Meters  days hr:min      Meters
  ---------------------------------------------------------------------------------
  WS02001211           JUNCTION     0.61     0.63     5.47     0  03:15        0.63
  WS02001212           JUNCTION     0.34     0.36     5.43     0  03:14        0.36
  WS02001213           JUNCTION     0.57     0.61     5.38     0  03:13        0.61
  WS02003069           JUNCTION     0.40     0.46     5.05     0  03:12        0.46
  WS02003072           JUNCTION     0.47     0.53     4.90     0  03:13        0.53
  WS02003073           JUNCTION     0.28     0.32     4.38     0  03:13        0.32
  WS02003060           JUNCTION     0.36     0.41     5.34     0  03:11        0.41
  WS02003066           JUNCTION     0.23     0.27     5.82     0  03:09        0.27
  WS02003059           JUNCTION     0.63     0.68     5.37     0  03:12        0.68
  WS02003067           JUNCTION     0.56     0.65     5.97     0  03:09        0.65
  WS02004401           JUNCTION     0.65     0.76     6.76     0  03:05        0.76
  WS02004402           JUNCTION     0.68     0.79     6.75     0  03:05        0.79
  WS02004403           JUNCTION     0.70     0.81     6.74     0  03:06        0.81
  WS02004404           JUNCTION     0.78     0.88     6.73     0  03:06        0.88
  WS02004406           JUNCTION     0.79     0.89     6.72     0  03:06        0.89
  WS02004409           JUNCTION     0.47     0.58     6.35     0  03:08        0.58
  WS02004410           JUNCTION     0.49     0.60     6.32     0  03:08        0.60
  WS02004411           JUNCTION     0.51     0.61     6.29     0  03:09        0.61
  WS02004412           JUNCTION     0.52     0.62     6.26     0  03:09        0.62
  WS02004413           JUNCTION     0.68     0.79     6.26     0  03:09        0.79
  WS02004405           JUNCTION     0.78     0.88     6.73     0  03:06        0.88
  WS02006109           JUNCTION     0.72     0.84     7.46     0  03:01        0.84
  WS02006110           JUNCTION     0.72     0.83     7.41     0  03:01        0.83
  WS02006111           JUNCTION     0.21     0.25     6.96     0  03:02        0.25
  WS02006112           JUNCTION     0.81     0.94     6.82     0  03:05        0.94
  WS02006113           JUNCTION     0.32     0.39     7.29     0  03:02        0.39
  WS02006115           JUNCTION     0.54     0.65     6.79     0  03:05        0.65
  WS02006116           JUNCTION     0.62     0.73     6.77     0  03:05        0.73
  WS02006230           JUNCTION     0.67     0.83     7.58     0  03:02        0.83
  WS02006231           JUNCTION     0.44     0.54     7.66     0  03:03        0.54
  WS02006232           JUNCTION     0.58     0.68     7.72     0  03:04        0.68
  WS02006234           JUNCTION     0.49     0.60     7.75     0  03:05        0.60
  WS02006235           JUNCTION     0.52     0.62     7.79     0  03:05        0.62
  WS02006238           JUNCTION     0.55     0.65     7.79     0  03:05        0.65
  WS02006240           JUNCTION     0.44     0.54     7.83     0  03:05        0.54
  WS02006242           JUNCTION     0.49     0.59     7.86     0  03:05        0.59
  WS02006243           JUNCTION     0.37     0.46     7.88     0  03:05        0.46
  WS02006245           JUNCTION     0.35     0.44     7.92     0  03:05        0.44
  WS02006247           JUNCTION     0.37     0.46     7.96     0  03:05        0.46
  WS02006248           JUNCTION     0.32     0.39     7.98     0  03:04        0.39
  WS02006249           JUNCTION     0.36     0.43     8.03     0  03:04        0.43
  WS02006239           JUNCTION     0.50     0.60     7.81     0  03:05        0.60
  WS02006251           JUNCTION     0.35     0.42     8.09     0  03:02        0.42
  WS02006252           JUNCTION     0.30     0.35     8.59     0  02:50        0.35
  WS02006253           JUNCTION     0.38     0.44     8.09     0  03:02        0.44
  WS02006256           JUNCTION     0.98     1.15     8.09     0  00:00        1.12
  WS02004138           JUNCTION     0.14     0.14     7.39     0  00:20        0.14
  WS02004407           JUNCTION     0.21     0.26     6.57     0  03:06        0.26
  WS02006228           JUNCTION     0.71     0.85     7.50     0  03:01        0.85
  WS02006229           JUNCTION     0.68     0.83     7.52     0  03:01        0.83
  WS02006280           JUNCTION     0.05     0.15     8.42     0  02:17        0.15
  WS02006284           JUNCTION     0.34     0.48     8.88     0  02:17        0.48
  WS02006287           JUNCTION     0.07     0.21     9.17     0  02:17        0.21
  WSF200               JUNCTION     0.21     0.27     5.50     0  03:10        0.27
  HS02004901           JUNCTION     0.11     0.23    10.06     0  02:15        0.23
  HS02004881           JUNCTION     0.01     0.02     9.05     0  02:17        0.02
  HS02004876           JUNCTION     0.03     0.10     9.13     0  02:15        0.10
  HS02004870           JUNCTION     0.01     0.04     9.33     0  02:17        0.04
  HS02004862           JUNCTION     0.01     0.05     9.43     0  02:18        0.05
  HS02004856           JUNCTION     0.07     0.10     9.53     0  02:17        0.10
  HS02004852           JUNCTION     0.01     0.03     9.54     0  02:19        0.03
  HS02004848           JUNCTION     0.01     0.03     9.63     0  02:17        0.03
  HS02004842           JUNCTION     0.33     0.36     9.63     0  02:16        0.36
  HS02004837           JUNCTION     0.03     0.05     9.63     0  02:17        0.05
  HS02004830           JUNCTION     0.04     0.06     9.53     0  02:17        0.06
  HS02004824           JUNCTION     0.02     0.04     9.44     0  02:20        0.04
  HS02004817           JUNCTION     0.42     0.53     9.37     0  02:18        0.53
  HS02004807           JUNCTION     0.11     0.20     9.37     0  02:18        0.20
  HS02004802           JUNCTION     0.15     0.24     9.37     0  02:18        0.24
  HS02004799           JUNCTION     0.09     0.26     9.47     0  02:16        0.26
  HS02004792           JUNCTION     0.02     0.10     9.62     0  02:15        0.10
  HS02004788           JUNCTION     0.02     0.07     9.97     0  02:16        0.07
  HS02004785           JUNCTION     0.03     0.14    10.04     0  02:15        0.14
  HS02004777           JUNCTION     0.13     0.25    10.05     0  02:15        0.25
  HS02004770           JUNCTION     0.10     0.22    10.06     0  02:15        0.22
  HS02004480           JUNCTION     0.06     0.20     9.44     0  02:16        0.20
  HS02004479           JUNCTION     0.10     0.24     9.44     0  02:16        0.24
  HS02004478           JUNCTION     0.05     0.13     9.36     0  02:17        0.13
  YS02001745           JUNCTION     0.14     0.31     7.83     0  05:07        0.30
  YS02001748           JUNCTION     0.50     0.72     7.79     0  05:11        0.71
  YS02001751           JUNCTION     0.68     0.95     7.83     0  05:12        0.93
  YS02001754           JUNCTION     0.93     1.24     7.85     0  06:35        1.17
  YS02001762           JUNCTION     1.13     1.51     7.91     0  05:14        1.42
  YS02001765           JUNCTION     1.08     1.50     7.95     0  05:14        1.40
  YS02001767           JUNCTION     1.05     1.51     8.00     0  05:14        1.39
  YS02001770           JUNCTION     1.04     1.57     8.06     0  05:14        1.41
  YS02001774           JUNCTION     1.11     1.66     8.09     0  04:11        1.50
  YS02001779           JUNCTION     0.86     1.42     8.10     0  05:14        1.25
  YS02001882           JUNCTION     0.28     0.46     7.17     0  02:49        0.46
  YS02001884           JUNCTION     0.37     0.56     7.17     0  02:49        0.56
  YS02001759           JUNCTION     1.16     1.49     7.86     0  05:14        1.43
  YS02001887           JUNCTION     0.45     0.64     7.17     0  02:49        0.64
  YS02001890           JUNCTION     0.48     0.67     7.17     0  02:49        0.67
  YS02001898           JUNCTION     0.25     0.42     7.16     0  02:51        0.42
  YS02001901           JUNCTION     0.37     0.55     7.16     0  02:50        0.55
  YS02001904           JUNCTION     0.35     0.52     7.15     0  02:51        0.52
  YS02001907           JUNCTION     0.68     0.87     7.15     0  02:51        0.87
  YS02001910           JUNCTION     0.47     0.65     7.16     0  02:51        0.65
  YS02001915           JUNCTION     0.27     0.44     7.15     0  02:51        0.44
  YS02001918           JUNCTION     0.08     0.10     7.16     0  03:03        0.10
  YS02001619           JUNCTION     0.64     0.84     7.77     0  05:02        0.84
  YS02001629           JUNCTION     0.99     1.25     7.80     0  05:02        1.24
  YS02001641           JUNCTION     1.10     1.39     7.83     0  04:44        1.38
  YS02001644           JUNCTION     1.10     1.40     7.83     0  04:44        1.39
  YS02001652           JUNCTION     0.94     1.21     7.80     0  05:14        1.20
  YS02001655           JUNCTION     0.71     0.97     7.82     0  04:48        0.95
  YS02001920           JUNCTION     0.17     0.21     7.21     0  03:02        0.21
  YS02001923           JUNCTION     0.06     0.08     7.34     0  03:02        0.08
  YS02001926           JUNCTION     0.14     0.18     7.62     0  03:01        0.18
  YS02001929           JUNCTION     0.06     0.09     7.78     0  03:01        0.09
  YS02001658           JUNCTION     0.44     0.65     7.79     0  05:04        0.65
  YS02001661           JUNCTION     0.23     0.39     7.79     0  05:03        0.38
  YS02001664           JUNCTION     0.07     0.12     8.04     0  02:43        0.12
  YS02001622           JUNCTION     0.66     0.86     7.76     0  05:02        0.86
  YS02001633           JUNCTION     1.08     1.35     7.81     0  05:01        1.34
  YS02001649           JUNCTION     1.14     1.42     7.81     0  05:14        1.40
  YS02001757           JUNCTION     1.26     1.55     7.81     0  05:06        1.51
  YS02001895           JUNCTION     0.25     0.42     7.17     0  02:49        0.42
  YS02001625           JUNCTION     0.94     1.17     7.77     0  05:04        1.16
  YS02163301           JUNCTION     1.02     1.29     7.81     0  05:02        1.27
  YS02163601           JUNCTION     1.13     1.42     7.82     0  05:02        1.41
  YS02164001           JUNCTION     1.08     1.37     7.83     0  04:44        1.36
  YS02001647           JUNCTION     0.93     1.21     7.82     0  04:44        1.21
  YSB1154              JUNCTION     0.23     0.39     9.45     0  02:16        0.39
  YSB6556              JUNCTION     0.13     0.28     9.44     0  02:16        0.28
  YSB1174              JUNCTION     0.19     0.34     9.44     0  02:16        0.34
  YSB1171              JUNCTION     0.38     0.54     9.44     0  02:16        0.54
  YS02006553           JUNCTION     0.68     0.87     7.15     0  02:51        0.87
  YS02006561           JUNCTION     0.14     0.23     6.89     0  02:50        0.23
  YS02006556           JUNCTION     0.65     0.84     7.15     0  02:50        0.84
  YS02006558           JUNCTION     0.70     0.88     7.15     0  02:50        0.88
  YS02001783           JUNCTION     0.24     0.41     6.55     0  02:50        0.41
  YS02001784           JUNCTION     0.27     0.43     6.50     0  02:51        0.43
  YS02001786           JUNCTION     0.23     0.37     6.40     0  02:51        0.37
  YS02001788           JUNCTION     0.17     0.28     6.25     0  02:51        0.28
  YS02001790           JUNCTION     0.20     0.34     5.98     0  02:52        0.34
  YS02001791           JUNCTION     0.13     0.22     5.69     0  02:52        0.22
  YS02001793           JUNCTION     0.08     0.14     4.97     0  02:32        0.14
  WS02004139           JUNCTION     0.55     0.57     5.48     0  03:15        0.57
  WSC                  OUTFALL      0.28     0.32     0.99     0  03:14        0.32
  3                    OUTFALL      0.05     0.13     6.13     0  00:00        0.12
  4                    OUTFALL      0.00     0.00     7.00     0  00:00        0.00
  5                    OUTFALL      0.00     0.00     5.00     0  00:00        0.00
  JK-storage           STORAGE      0.17     3.00     3.80     0  00:00        2.70
  CC-storage           STORAGE      0.53     0.73     7.73     0  05:25        0.73
  XR-storage           STORAGE      7.56     7.72     5.72     0  02:28        7.72
  
  
  *******************
  Node Inflow Summary
  *******************
  
  -------------------------------------------------------------------------------------------------
                                  Maximum  Maximum                  Lateral       Total        Flow
                                  Lateral    Total  Time of Max      Inflow      Inflow     Balance
                                   Inflow   Inflow   Occurrence      Volume      Volume       Error
  Node                 Type           LPS      LPS  days hr:min    10^6 ltr    10^6 ltr     Percent
  -------------------------------------------------------------------------------------------------
  WS02001211           JUNCTION      7.35   198.03     0  02:52       0.207        5.45       0.590
  WS02001212           JUNCTION      0.00   198.46     0  02:51           0        5.42       0.294
  WS02001213           JUNCTION      0.00   198.84     0  02:51           0        5.41       0.381
  WS02003069           JUNCTION      0.32   627.84     0  03:12     0.00902        12.3       0.212
  WS02003072           JUNCTION      0.00   627.82     0  03:12           0        12.3       0.265
  WS02003073           JUNCTION      1.82   629.64     0  03:13      0.0514        12.3       0.294
  WS02003060           JUNCTION     16.53   627.51     0  03:11       0.466        12.4       0.202
  WS02003066           JUNCTION      0.00   415.11     0  03:09           0        6.54       0.064
  WS02003059           JUNCTION      0.00   199.73     0  02:50           0        5.39       0.685
  WS02003067           JUNCTION      0.00   415.10     0  03:09           0        6.55       0.138
  WS02004401           JUNCTION      0.00   416.88     0  03:04           0        6.78       0.306
  WS02004402           JUNCTION      0.00   416.62     0  03:05           0        6.76       0.290
  WS02004403           JUNCTION      0.00   416.47     0  03:05           0        6.74       0.265
  WS02004404           JUNCTION      0.16   416.54     0  03:05     0.00457        6.72       0.201
  WS02004406           JUNCTION      0.00   416.51     0  03:06           0        6.69       0.490
  WS02004409           JUNCTION      0.00   416.48     0  03:06           0        6.65       0.232
  WS02004410           JUNCTION      0.00   415.96     0  03:07           0        6.64       0.263
  WS02004411           JUNCTION      0.00   415.56     0  03:08           0        6.62       0.272
  WS02004412           JUNCTION      0.00   415.31     0  03:08           0         6.6       0.295
  WS02004413           JUNCTION      0.00   415.15     0  03:09           0        6.58       0.441
  WS02004405           JUNCTION      0.04   416.55     0  03:05     0.00107        6.71       0.300
  WS02006109           JUNCTION      1.23   416.50     0  03:01      0.0347        6.87       0.314
  WS02006110           JUNCTION      0.00   416.50     0  03:01           0        6.85       0.280
  WS02006111           JUNCTION      0.00   426.34     0  03:02           0        6.82       0.062
  WS02006112           JUNCTION      9.64   419.65     0  03:02      0.0263        6.84       0.415
  WS02006113           JUNCTION      0.00   416.55     0  03:02           0        6.83       0.134
  WS02006115           JUNCTION      0.00   418.07     0  03:02           0        6.82       0.282
  WS02006116           JUNCTION      0.00   417.32     0  03:03           0         6.8       0.269
  WS02006230           JUNCTION     10.28   329.23     0  03:11        0.29        5.97       0.244
  WS02006231           JUNCTION      0.00   318.39     0  03:11           0        5.69       0.144
  WS02006232           JUNCTION      0.00   318.12     0  03:11           0        5.71       0.274
  WS02006234           JUNCTION      0.00   317.78     0  03:10           0        5.71       0.129
  WS02006235           JUNCTION      0.00   317.61     0  03:10           0        5.75       0.179
  WS02006238           JUNCTION      0.00   215.88     0  03:07           0        3.77       0.194
  WS02006240           JUNCTION      0.00   215.55     0  03:06           0        3.77       0.296
  WS02006242           JUNCTION      0.00   215.56     0  03:04           0        3.77       0.365
  WS02006243           JUNCTION      0.00   215.83     0  03:03           0        3.77       0.176
  WS02006245           JUNCTION      0.00   216.21     0  02:56           0        3.78       0.208
  WS02006247           JUNCTION      0.00   217.43     0  02:54           0        3.78       0.178
  WS02006248           JUNCTION      0.00   218.39     0  02:55           0        3.79       0.121
  WS02006249           JUNCTION      0.00   219.26     0  02:53           0         3.8       0.253
  WS02006239           JUNCTION      0.00   215.70     0  03:07           0        3.77       0.288
  WS02006251           JUNCTION      0.08   221.56     0  02:50     0.00217        3.81       0.231
  WS02006252           JUNCTION      0.00   200.00     0  02:50           0        3.66       0.012
  WS02006253           JUNCTION      1.47    42.47     0  02:16     0.00341       0.149       2.632
  WS02006256           JUNCTION      0.00   300.00     0  00:00           0        3.41       0.081
  WS02004138           JUNCTION      0.00   190.00     0  01:30           0        5.27       0.061
  WS02004407           JUNCTION      0.00   416.50     0  03:06           0        6.66       0.105
  WS02006228           JUNCTION      0.00   415.27     0  03:01           0        6.85       0.217
  WS02006229           JUNCTION      0.00   415.27     0  03:01           0        6.86       0.183
  WS02006280           JUNCTION      0.00   217.53     0  02:17           0       0.907       0.008
  WS02006284           JUNCTION      0.10   217.52     0  02:17      0.0027       0.908       0.117
  WS02006287           JUNCTION      0.00   217.38     0  02:17           0       0.906       0.080
  WSF200               JUNCTION      0.00   415.10     0  03:09           0        6.54       0.062
  HS02004901           JUNCTION     11.93    11.93     0  02:09      0.0317      0.0318       5.839
  HS02004881           JUNCTION      4.82    41.35     0  02:16      0.0138       0.145       0.170
  HS02004876           JUNCTION      7.65    36.85     0  02:17      0.0265       0.132       0.400
  HS02004870           JUNCTION      8.49    29.37     0  02:17      0.0262       0.106       0.101
  HS02004862           JUNCTION      6.94    21.46     0  02:17      0.0318      0.0798       0.212
  HS02004856           JUNCTION      6.29    14.58     0  02:17      0.0197      0.0494       2.994
  HS02004852           JUNCTION      0.00     8.69     0  02:17           0      0.0298       0.170
  HS02004848           JUNCTION     13.82    13.82     0  02:19      0.0624      0.0624       0.070
  HS02004842           JUNCTION      0.00     5.61     0  02:29           0      0.0456      39.897
  HS02004837           JUNCTION     19.93    24.68     0  02:16       0.225       0.257       0.317
  HS02004830           JUNCTION      0.15    24.82     0  02:17     0.00423       0.248       0.500
  HS02004824           JUNCTION     15.50    40.13     0  02:20      0.0817       0.328       0.164
  HS02004817           JUNCTION      0.60    40.73     0  02:20      0.0169       0.344       5.084
  HS02004807           JUNCTION     15.97    55.26     0  02:18      0.0481       0.376       1.137
  HS02004802           JUNCTION      0.00    55.58     0  02:20           0       0.372       1.104
  HS02004799           JUNCTION     12.29   138.29     0  02:15      0.0389       0.471       0.485
  HS02004792           JUNCTION     54.98   126.28     0  02:14        0.17       0.433       0.095
  HS02004788           JUNCTION     18.33    73.52     0  02:15       0.101       0.264       0.149
  HS02004785           JUNCTION      0.15    55.60     0  02:15     0.00423       0.164       0.294
  HS02004777           JUNCTION      0.03    55.95     0  02:13    0.000846       0.165       3.243
  HS02004770           JUNCTION     46.61    57.20     0  02:11       0.135       0.166       1.906
  HS02004480           JUNCTION      0.00   163.02     0  02:15           0        0.55       0.132
  HS02004479           JUNCTION      0.00    25.28     0  02:18           0       0.091       0.808
  HS02004478           JUNCTION      0.00   217.38     0  02:17           0       0.906       0.069
  YS02001745           JUNCTION     76.78   132.96     0  05:27       0.836       0.927       0.130
  YS02001748           JUNCTION      0.04   211.45     0  05:11     0.00127         1.1       0.824
  YS02001751           JUNCTION      0.01   222.74     0  05:12     0.00031        1.02       1.627
  YS02001754           JUNCTION      0.26   101.88     0  05:09     0.00733       0.854       1.491
  YS02001762           JUNCTION      0.00   113.85     0  02:40           0       0.919       2.293
  YS02001765           JUNCTION      0.00   117.77     0  02:36           0       0.921       2.656
  YS02001767           JUNCTION      0.54   116.13     0  02:55      0.0151       0.941       3.818
  YS02001770           JUNCTION     99.01   119.81     0  02:54       0.977        1.05       2.761
  YS02001774           JUNCTION      0.00    44.36     0  02:14           0       0.176      16.476
  YS02001779           JUNCTION      0.01    43.60     0  04:11    0.000141      0.0797      12.546
  YS02001882           JUNCTION      0.00     4.34     0  02:09           0     0.00532      46.094
  YS02001884           JUNCTION      0.00    12.01     0  02:06           0      0.0213      29.721
  YS02001759           JUNCTION     96.94   204.10     0  02:51       0.912        1.79       1.255
  YS02001887           JUNCTION    128.09   128.09     0  02:40        1.09         1.1       0.656
  YS02001890           JUNCTION      0.00   128.09     0  02:43           0        1.07       0.736
  YS02001898           JUNCTION      0.00   127.82     0  02:43           0        1.06       0.207
  YS02001901           JUNCTION      0.00   127.71     0  02:44           0        1.06       0.523
  YS02001904           JUNCTION      0.00   127.14     0  02:44           0        1.06       0.486
  YS02001907           JUNCTION      0.00   228.63     0  02:52           0        2.27       0.980
  YS02001910           JUNCTION      0.00   104.25     0  03:01           0        1.22       0.837
  YS02001915           JUNCTION     68.86   103.63     0  03:01       0.715        1.23       0.372
  YS02001918           JUNCTION      0.00    35.27     0  03:02           0       0.513       0.221
  YS02001619           JUNCTION     66.93    66.93     0  02:55       0.706       0.708       1.157
  YS02001629           JUNCTION      0.00   122.12     0  04:43           0       0.693       3.167
  YS02001641           JUNCTION      0.00   146.73     0  03:04           0        1.37       1.541
  YS02001644           JUNCTION     72.93   220.67     0  03:04       0.803        2.15       1.224
  YS02001652           JUNCTION      0.00   115.30     0  02:59           0        0.81       2.433
  YS02001655           JUNCTION      0.15   198.13     0  04:47     0.00434       0.914       1.994
  YS02001920           JUNCTION      2.87    35.29     0  03:02      0.0809       0.515       0.400
  YS02001923           JUNCTION      0.04    32.43     0  03:01     0.00106       0.435       0.070
  YS02001926           JUNCTION      0.05    32.45     0  03:01     0.00147       0.436       0.499
  YS02001929           JUNCTION     32.41    32.41     0  03:01       0.434       0.434       0.068
  YS02001658           JUNCTION      0.00   205.51     0  04:40           0        1.08       0.847
  YS02001661           JUNCTION      0.00   162.86     0  04:40           0       0.973       0.198
  YS02001664           JUNCTION     90.67    90.67     0  02:43       0.796       0.796       0.014
  YS02001622           JUNCTION      0.00    81.44     0  02:50           0       0.757       3.083
  YS02001633           JUNCTION     74.14   149.10     0  02:47       0.827        1.43       2.273
  YS02001649           JUNCTION      0.00   309.83     0  03:00           0        2.86       1.290
  YS02001757           JUNCTION      0.00   561.02     0  02:55           0        5.36       1.737
  YS02001895           JUNCTION      0.00   127.74     0  02:43           0        1.07       0.352
  YS02001625           JUNCTION      0.00   123.32     0  04:41           0       0.784       4.888
  YS02163301           JUNCTION      0.00    83.49     0  03:05           0        0.63       3.835
  YS02163601           JUNCTION      0.11   143.40     0  02:46      0.0031        1.39       2.195
  YS02164001           JUNCTION      0.00   142.58     0  02:59           0        1.37       1.448
  YS02001647           JUNCTION      0.00   222.05     0  03:04           0        2.11       1.114
  YSB1154              JUNCTION     13.60    13.60     0  02:14      0.0472      0.0485       3.067
  YSB6556              JUNCTION      0.00    13.56     0  02:17           0      0.0495       2.583
  YSB1174              JUNCTION     13.59    13.59     0  02:09      0.0344      0.0354       3.761
  YSB1171              JUNCTION      0.00    25.32     0  02:15           0      0.0904       7.515
  YS02006553           JUNCTION      0.00   228.71     0  02:54           0        2.26       0.635
  YS02006561           JUNCTION      0.00   339.65     0  02:50           0         3.2       0.021
  YS02006556           JUNCTION      0.00   228.79     0  02:54           0        2.27       0.459
  YS02006558           JUNCTION    108.19   335.90     0  02:50       0.991        3.23       0.140
  YS02001783           JUNCTION      0.00   335.88     0  02:50           0         3.2       0.048
  YS02001784           JUNCTION      1.06   336.94     0  02:51      0.0299        3.23       0.079
  YS02001786           JUNCTION      0.06   336.98     0  02:51     0.00159        3.23       0.077
  YS02001788           JUNCTION      0.07   337.04     0  02:51       0.002        3.23       0.044
  YS02001790           JUNCTION      0.15   337.20     0  02:52     0.00437        3.23       0.055
  YS02001791           JUNCTION      0.00   337.19     0  02:52           0        3.23       0.028
  YS02001793           JUNCTION      0.00   337.19     0  02:52           0        3.23       0.010
  WS02004139           JUNCTION      0.32   190.33     0  00:20     0.00905        5.28       0.580
  WSC                  OUTFALL       0.00   629.62     0  03:14           0        12.3       0.000
  3                    OUTFALL       0.00   250.55     0  00:00           0         1.4       0.000
  4                    OUTFALL       0.00     0.00     0  00:00           0           0       0.000 ltr
  5                    OUTFALL       0.00     0.00     0  00:00           0           0       0.000 ltr
  JK-storage           STORAGE       0.00   337.19     0  02:52           0        3.38      -0.804
  CC-storage           STORAGE       0.00   561.30     0  02:55           0        5.25       0.653
  XR-storage           STORAGE     324.79   324.79     0  02:50        7.04        7.64       0.000
  
  
  **********************
  Node Surcharge Summary
  **********************
  
  Surcharging occurs when water rises above the top of the highest conduit.
  ---------------------------------------------------------------------
                                               Max. Height   Min. Depth
                                   Hours       Above Crown    Below Rim
  Node                 Type      Surcharged         Meters       Meters
  ---------------------------------------------------------------------
  WS02006109           JUNCTION        0.31          0.019        1.801
  WS02006228           JUNCTION        0.28          0.019        2.181
  YS02001754           JUNCTION        2.63          0.188        0.962
  YS02001762           JUNCTION        5.16          0.510        0.640
  YS02001765           JUNCTION        5.07          0.500        0.600
  YS02001767           JUNCTION        4.93          0.507        0.523
  YS02001770           JUNCTION        4.58          0.538        0.382
  YS02001774           JUNCTION        5.13          0.664        0.386
  YS02001779           JUNCTION        1.79          0.418        0.262
  YS02001759           JUNCTION        5.22          0.495        0.715
  YS02001641           JUNCTION        5.11          0.390        0.710
  YS02001644           JUNCTION        5.12          0.396        0.524
  YS02001652           JUNCTION        3.37          0.176        0.954
  YS02001633           JUNCTION        5.03          0.335        0.725
  YS02001649           JUNCTION        5.18          0.416        0.634
  YS02001757           JUNCTION        5.36          0.549        0.661
  YS02001625           JUNCTION        3.74          0.166        0.614
  YS02163301           JUNCTION        4.78          0.288        0.742
  YS02163601           JUNCTION        5.18          0.423        0.657
  YS02164001           JUNCTION        5.07          0.370        0.730
  YS02001647           JUNCTION        3.62          0.215        0.685
  
  
  *********************
  Node Flooding Summary
  *********************
  
  Flooding refers to all water that overflows a node, whether it ponds or not.
  --------------------------------------------------------------------------
                                                             Total   Maximum
                                 Maximum   Time of Max       Flood    Ponded
                        Hours       Rate    Occurrence      Volume     Depth
  Node                 Flooded       LPS   days hr:min    10^6 ltr    Meters
  --------------------------------------------------------------------------
  XR-storage              5.36    134.79      0  02:50       1.445     0.000
  
  
  **********************
  Storage Volume Summary
  **********************
  
  --------------------------------------------------------------------------------------------------
                         Average     Avg  Evap Exfil       Maximum     Max    Time of Max    Maximum
                          Volume    Pcnt  Pcnt  Pcnt        Volume    Pcnt     Occurrence    Outflow
  Storage Unit           1000 m3    Full  Loss  Loss       1000 m3    Full    days hr:min        LPS
  --------------------------------------------------------------------------------------------------
  JK-storage               0.009       3     0     0         0.151      52       0  00:00     300.00
  CC-storage               1.477       9     0     0         2.026      13       0  05:25     200.00
  XR-storage               0.907      98     0     0         0.926     100       0  02:28     190.00
  
  
  ***********************
  Outfall Loading Summary
  ***********************
  
  -----------------------------------------------------------
                         Flow       Avg       Max       Total
                         Freq      Flow      Flow      Volume
  Outfall Node           Pcnt       LPS       LPS    10^6 ltr
  -----------------------------------------------------------
  WSC                   99.99    507.00    629.62      12.292
  3                     64.52     98.33    250.55       1.400
  4                      0.00      0.00      0.00       0.000
  5                      0.00      0.00      0.00       0.000
  -----------------------------------------------------------
  System                41.13    605.32    827.11      13.692
  
  
  ********************
  Link Flow Summary
  ********************
  
  -----------------------------------------------------------------------------
                                 Maximum  Time of Max   Maximum    Max/    Max/
                                  |Flow|   Occurrence   |Veloc|    Full    Full
  Link                 Type          LPS  days hr:min     m/sec    Flow   Depth
  -----------------------------------------------------------------------------
  WS02003066WSF200     CONDUIT    415.10     0  03:09      2.57    0.07    0.20
  WS02006287WS02006284 CONDUIT    217.42     0  02:17      1.65    0.10    0.22
  WS02006284WS02006280 CONDUIT    217.53     0  02:17      1.89    0.09    0.20
  WS02006280WS02006229 CONDUIT    217.53     0  02:17      3.04    0.05    0.15
  WS02006229WS02006228 CONDUIT    415.27     0  03:01      0.83    1.38    1.00
  WS02006256WS02006235 CONDUIT    166.25     0  00:01      2.58    1.76    1.00
  WS02006253WS02006251 CONDUIT     42.44     0  02:17      0.50    0.13    0.61
  WS02006252WS02006251 CONDUIT    200.33     0  02:50      1.97    0.74    0.76
  WS02006251WS02006249 CONDUIT    219.26     0  02:53      0.94    0.63    0.60
  WS02006249WS02006248 CONDUIT    218.39     0  02:55      1.02    1.20    0.57
  WS02006248WS02006247 CONDUIT    217.43     0  02:54      0.98    0.47    0.60
  WS02006247WS02006245 CONDUIT    216.21     0  02:56      0.93    1.71    0.63
  WS02006245WS02006243 CONDUIT    215.83     0  03:03      0.95    0.64    0.64
  WS02006243WS02006242 CONDUIT    215.56     0  03:04      0.79    0.46    0.73
  WS02006242WS02006240 CONDUIT    215.55     0  03:06      0.72    0.86    0.80
  WS02006240WS02006239 CONDUIT    215.70     0  03:07      0.75    0.68    0.79
  WS02006239WS02006238 CONDUIT    215.88     0  03:07      0.67    0.69    0.88
  WS02006238WS02006235 CONDUIT    215.98     0  03:08      1.25    0.48    0.91
  WS02006235WS02006234 CONDUIT    317.78     0  03:10      0.94    3.35    0.85
  WS02006234WS02006232 CONDUIT    318.12     0  03:11      1.13    0.64    0.91
  WS02006232WS02006231 CONDUIT    318.39     0  03:11      0.93    0.67    0.86
  WS02006231WS02006230 CONDUIT    318.96     0  03:11      1.28    4.84    0.71
  WS02006230WS02006229 CONDUIT    330.19     0  03:13      0.86    7.35    1.00
  WS02006228WS02006109 CONDUIT    415.27     0  03:01      0.83    1.81    1.00
  WS02006116WS02004401 CONDUIT    416.88     0  03:04      0.73    0.57    0.74
  WS02006115WS02006116 CONDUIT    417.32     0  03:03      0.79    0.54    0.66
  WS02006113WS02006111 CONDUIT    426.34     0  03:02      2.25    0.51    0.40
  WS02006112WS02006115 CONDUIT    418.07     0  03:02      0.63    0.25    0.79
  WS02006111WS02006112 CONDUIT    417.42     0  03:02      1.32    0.20    0.65
  WS02006110WS02006113 CONDUIT    416.55     0  03:02      1.04    0.38    0.75
  WS02006109WS02006110 CONDUIT    416.50     0  03:01      0.85    0.80    0.95
  WS02004411WS02004412 CONDUIT    415.31     0  03:08      0.82    0.59    0.62
  WS02004401WS02004402 CONDUIT    416.62     0  03:05      0.77    0.50    0.77
  WS02004413WS02003067 CONDUIT    415.10     0  03:09      0.97    0.18    0.54
  WS02004412WS02004413 CONDUIT    415.15     0  03:09      0.70    0.28    0.71
  WS02004410WS02004411 CONDUIT    415.56     0  03:08      0.84    0.57    0.60
  WS02004409WS02004410 CONDUIT    415.96     0  03:07      0.87    0.54    0.59
  WS02004407WS02004409 CONDUIT    416.48     0  03:06      1.34    0.15    0.42
  WS02004406WS02004407 CONDUIT    416.50     0  03:06      0.90    0.19    0.57
  WS02004405WS02004406 CONDUIT    416.51     0  03:06      0.66    0.82    0.88
  WS02004404WS02004405 CONDUIT    416.51     0  03:05      0.84    4.08    0.88
  WS02004403WS02004404 CONDUIT    416.38     0  03:05      0.74    0.30    0.84
  WS02004402WS02004403 CONDUIT    416.47     0  03:05      0.75    0.60    0.80
  WS02004139WS02001211 CONDUIT    190.68     0  02:52      0.53    0.24    0.46
  WS02004138WS02004139 CONDUIT    190.01     0  00:20      2.39    0.04    0.33
  WS02003067WS02003066 CONDUIT    415.11     0  03:09      1.04    0.13    0.38
  WS02001213WS02003059 CONDUIT    199.73     0  02:50      0.47    0.33    0.64
  WS02001212WS02001213 CONDUIT    198.84     0  02:51      1.03    0.31    0.33
  WS02001211WS02001212 CONDUIT    198.46     0  02:51      0.54    0.15    0.50
  WS02003072WS02003073 CONDUIT    627.81     0  03:13      1.50    1.36    0.40
  WS02003069WS02003072 CONDUIT    627.82     0  03:12      1.43    0.30    0.41
  WS02003060WS02003069 CONDUIT    627.52     0  03:12      1.69    0.25    0.36
  WS02003059WS02003060 CONDUIT    200.96     0  02:50      0.67    0.13    0.55
  HS02004901HS02004770 CONDUIT     10.98     0  02:14      0.05    0.04    0.33
  HS02004876HS02004881 CONDUIT     36.94     0  02:17      0.59    0.39    0.09
  HS02004870HS02004876 CONDUIT     29.35     0  02:17      0.41    0.02    0.10
  HS02004842HS02004848 CONDUIT      5.61     0  02:29      0.03    0.00    0.28
  HS02004837HS02004842 CONDUIT      5.81     0  02:30      0.41    0.00    0.29
  HS02004830HS02004837 CONDUIT     24.67     0  02:17      0.45    0.02    0.08
  HS02004824HS02004830 CONDUIT     24.81     0  02:17      0.49    0.03    0.07
  HS02004817HS02004824 CONDUIT     40.13     0  02:20      0.17    0.02    0.40
  HS02004770HS02004777 CONDUIT     55.92     0  02:13      0.24    0.10    0.34
  HS02004799HS02004480 CONDUIT    138.09     0  02:15      0.61    0.17    0.32
  HS02004792HS02004799 CONDUIT    126.20     0  02:15      0.70    0.08    0.26
  HS02004788HS02004792 CONDUIT     73.46     0  02:16      0.85    0.05    0.12
  HS02004785HS02004788 CONDUIT     55.50     0  02:16      0.53    0.42    0.15
  HS02004777HS02004785 CONDUIT     55.45     0  02:15      0.29    0.07    0.28
  HS02004480HS02004478 CONDUIT    162.94     0  02:16      0.99    0.69    0.24
  HS02004479HS02004480 CONDUIT     25.53     0  02:18      0.16    0.02    0.31
  HS02004862HS02004870 CONDUIT     21.42     0  02:18      0.48    0.02    0.06
  HS02004848HS02004852 CONDUIT      8.69     0  02:17      0.32    0.01    0.04
  HS02004856HS02004862 CONDUIT     14.54     0  02:17      0.35    0.01    0.06
  HS02004852HS02004856 CONDUIT      8.65     0  02:19      0.13    0.01    0.09
  HS02004802HS02004478 CONDUIT     56.01     0  02:21      0.31    0.05    0.26
  HS02004478WS02006287 CONDUIT    217.38     0  02:17      1.35    0.06    0.18
  HS02004817HS02004807 CONDUIT     41.32     0  02:22      0.11    0.02    0.52
  HS02004807HS02004802 CONDUIT     55.58     0  02:20      0.26    0.11    0.31
  YS02001759YS02001757 CONDUIT    205.00     0  02:51      0.26    0.15    1.00
  YS02001762YS02001759 CONDUIT    107.49     0  02:51      0.18    0.12    1.00
  YS02001765YS02001762 CONDUIT    113.85     0  02:40      0.23    0.11    1.00
  YS02001770YS02001767 CONDUIT    115.60     0  02:55      0.31    0.46    1.00
  YS02001774YS02001770 CONDUIT     44.36     0  02:14      0.14    0.03    1.00
  YS02001779YS02001774 CONDUIT     43.59     0  04:11      0.07    0.02    1.00
  YS02001649YS02001757 CONDUIT    311.39     0  03:00      0.40    0.19    1.00
  YS02001767YS02001765 CONDUIT    117.77     0  02:36      0.26    0.15    1.00
  YS02006561YS02001783 CONDUIT    335.88     0  02:50      1.82    0.17    0.39
  YS02001783YS02001784 CONDUIT    335.88     0  02:51      1.26    0.46    0.52
  YS02001784YS02001785 CONDUIT    336.92     0  02:51      1.34    0.78    0.50
  YS02001788YS02001790 CONDUIT    337.04     0  02:52      1.91    0.25    0.38
  YS02001790YS02001791 CONDUIT    337.19     0  02:52      2.18    0.37    0.35
  YS02001791YS02001793 CONDUIT    337.19     0  02:52      4.49    0.14    0.21
  YS02001910YS02001907 CONDUIT    104.46     0  03:01      0.49    0.06    0.75
  YS02001786YS02001788 CONDUIT    336.97     0  02:51      1.78    0.65    0.40
  YS02001915YS02001910 CONDUIT    104.25     0  03:01      0.45    0.05    0.54
  YS02001918YS02001915 CONDUIT     35.26     0  03:03      0.44    0.02    0.27
  YS02001923YS02001920 CONDUIT     32.42     0  03:02      0.46    0.01    0.14
  YS02001926YS02001923 CONDUIT     32.39     0  03:01      0.50    0.05    0.14
  YS02001929YS02001926 CONDUIT     32.39     0  03:01      0.53    0.02    0.13
  YS02001920YS02001918 CONDUIT     35.27     0  03:02      0.47    0.03    0.15
  YS02001629YS02163301 CONDUIT     83.49     0  03:05      0.12    0.10    1.00
  YS02001619YS02001622 CONDUIT     81.44     0  02:50      0.66    0.12    0.85
  YS02001622YS02001625 CONDUIT    123.32     0  04:41      0.26    0.07    0.93
  YS02001625YS02001629 CONDUIT    122.12     0  04:43      0.26    0.06    0.93
  YS02163301YS02001633 CONDUIT     76.67     0  03:06      0.10    0.07    1.00
  YS02163601YS02164001 CONDUIT    142.58     0  02:59      0.18    0.13    1.00
  YS02164001YS02001641 CONDUIT    146.73     0  03:04      0.19    0.20    1.00
  YS02001641YS02001644 CONDUIT    149.51     0  03:04      0.19    0.48    1.00
  YS02001647YS02001649 CONDUIT    228.28     0  02:58      0.30    0.12    1.00
  YS02006553YS02006556 CONDUIT    228.79     0  02:54      0.33    0.20    0.83
  YS02006556YS02006558 CONDUIT    228.95     0  02:55      0.32    0.18    0.86
  YSB6556YSB1171       CONDUIT     13.82     0  02:18      0.06    0.01    0.58
  YS02001907YS02006553 CONDUIT    228.71     0  02:54      0.27    0.27    0.95
  YS02006558YS02006561 CONDUIT    339.65     0  02:50      2.36    0.75    0.51
  YS02001633YS02163601 CONDUIT    143.29     0  02:46      0.18    0.15    1.00
  YS02001644YS02001647 CONDUIT    222.05     0  03:04      0.29    0.13    1.00
  YS02001745YS02001748 CONDUIT    172.63     0  05:07      1.42    0.07    0.44
  YS02001748YS02001751 CONDUIT    210.41     0  05:12      1.11    0.11    0.79
  YS02001751YS02001754 CONDUIT    101.62     0  05:09      0.98    0.05    0.98
  YS02001754YS02001757 CONDUIT    108.69     0  04:48      0.33    0.04    1.00
  YS02001882YS02001884 CONDUIT      4.34     0  02:09      0.06    0.00    0.48
  YS02001884YS02001887 CONDUIT     12.01     0  02:06      0.06    0.02    0.57
  YS02001890YS02001895 CONDUIT    127.74     0  02:43      0.29    0.06    0.54
  YS02001895YS02001898 CONDUIT    127.82     0  02:43      0.49    0.22    0.40
  YS02001898YS02001901 CONDUIT    127.71     0  02:44      0.34    0.08    0.48
  YS02001901YS02001904 CONDUIT    127.14     0  02:44      0.30    0.20    0.54
  YS02001904YS02001907 CONDUIT    127.11     0  02:43      0.22    0.04    0.69
  YS02001887YS02001890 CONDUIT    128.09     0  02:43      0.25    0.22    0.63
  YS02001652YS02001649 CONDUIT    122.89     0  02:37      0.33    0.06    1.00
  YS02001655YS02001652 CONDUIT    115.30     0  02:59      1.05    0.06    0.98
  YS02001658YS02001655 CONDUIT    173.13     0  04:48      1.27    0.07    0.79
  YS02001661YS02001658 CONDUIT    205.51     0  04:40      1.47    0.08    0.44
  YS02001664YS02001661 CONDUIT     90.67     0  02:43      1.14    0.03    0.23
  YSB1154YSB6556       CONDUIT     13.56     0  02:17      0.19    0.02    0.47
  YSB1174YSB1171       CONDUIT     12.63     0  02:10      0.06    0.02    0.59
  YSB1171HS02004479    CONDUIT     25.28     0  02:18      0.54    0.02    0.46
  HS02004881HS02006253 CONDUIT     41.34     0  02:17      1.70    0.01    0.08
  YS02001793JiankangQianchi CONDUIT    337.19     0  02:52     13.02    0.03    0.56
  YS02001757CaochengTiaoxuchi CONDUIT    561.30     0  02:55      1.07    0.25    0.86
  WSF200WS02003060     CONDUIT    415.09     0  03:10      1.59    0.09    0.28
  1                    CONDUIT    629.62     0  03:14      2.93    0.22    0.32
  2                    CONDUIT      0.00     0  00:00      0.00    0.00    0.00
  3                    CONDUIT    250.55     0  00:00      8.26    0.40    0.46
  4                    CONDUIT      0.00     0  00:00      0.00    0.00    0.00
  CC-Pump-1            PUMP       200.00     0  02:50              1.00
  CC-Pump-2            PUMP         0.00     0  00:00              0.00
  JK-Pump-1            PUMP       300.00     0  00:00              1.00
  JK-Pump-2            PUMP         0.00     0  00:00              0.00
  XR-Pump-1            PUMP        95.00     0  00:00              1.00
  XR-Pump-2            PUMP        95.00     0  01:40              1.00
  XR-Pump-3            PUMP        95.00     0  00:20              1.00
  XR-Pump-4            PUMP        95.00     0  01:40              1.00
  
  
  ***************************
  Flow Classification Summary
  ***************************
  
  -------------------------------------------------------------------------------------
                      Adjusted    ---------- Fraction of Time in Flow Class ---------- 
                       /Actual         Up    Down  Sub   Sup   Up    Down  Norm  Inlet 
  Conduit               Length    Dry  Dry   Dry   Crit  Crit  Crit  Crit  Ltd   Ctrl  
  -------------------------------------------------------------------------------------
  WS02003066WSF200        1.00   0.06  0.00  0.00  0.00  0.94  0.00  0.00  0.76  0.00
  WS02006287WS02006284    1.00   0.04  0.02  0.00  0.71  0.23  0.00  0.00  0.77  0.00
  WS02006284WS02006280    1.00   0.05  0.00  0.00  0.00  0.00  0.00  0.95  0.00  0.00
  WS02006280WS02006229    1.00   0.05  0.00  0.00  0.00  0.00  0.00  0.95  0.00  0.00
  WS02006229WS02006228    1.00   0.00  0.00  0.00  0.99  0.00  0.00  0.01  0.00  0.00
  WS02006256WS02006235    1.00   0.00  0.00  0.00  1.00  0.00  0.00  0.00  0.00  0.00
  WS02006253WS02006251    1.00   0.03  0.01  0.00  0.95  0.00  0.00  0.00  0.00  0.00
  WS02006252WS02006251    1.00   0.14  0.00  0.00  0.00  0.00  0.86  0.00  0.00  0.00
  WS02006251WS02006249    1.00   0.00  0.00  0.00  1.00  0.00  0.00  0.00  0.29  0.00
  WS02006249WS02006248    1.00   0.00  0.02  0.00  0.87  0.00  0.11  0.00  0.00  0.00
  WS02006248WS02006247    1.00   0.02  0.00  0.00  0.97  0.00  0.00  0.00  0.22  0.00
  WS02006247WS02006245    1.00   0.02  0.00  0.00  0.98  0.00  0.00  0.00  0.00  0.00
  WS02006245WS02006243    1.00   0.01  0.00  0.00  0.94  0.00  0.00  0.04  0.01  0.00
  WS02006243WS02006242    1.00   0.01  0.00  0.00  0.99  0.00  0.00  0.00  0.26  0.00
  WS02006242WS02006240    1.00   0.00  0.00  0.00  1.00  0.00  0.00  0.00  0.00  0.00
  WS02006240WS02006239    1.00   0.00  0.00  0.00  0.95  0.00  0.00  0.04  0.01  0.00
  WS02006239WS02006238    1.00   0.00  0.00  0.00  1.00  0.00  0.00  0.00  0.01  0.00
  WS02006238WS02006235    1.00   0.00  0.00  0.00  1.00  0.00  0.00  0.00  0.00  0.00
  WS02006235WS02006234    1.00   0.00  0.00  0.00  0.95  0.00  0.05  0.00  0.00  0.00
  WS02006234WS02006232    1.00   0.00  0.00  0.00  1.00  0.00  0.00  0.00  0.16  0.00
  WS02006232WS02006231    1.00   0.00  0.00  0.00  0.99  0.00  0.00  0.00  0.00  0.00
  WS02006231WS02006230    1.00   0.00  0.00  0.00  0.32  0.00  0.68  0.00  0.00  0.00
  WS02006230WS02006229    1.00   0.00  0.00  0.00  0.98  0.00  0.00  0.02  0.01  0.00
  WS02006228WS02006109    1.00   0.00  0.00  0.00  1.00  0.00  0.00  0.00  0.00  0.00
  WS02006116WS02004401    1.00   0.03  0.00  0.00  0.97  0.00  0.00  0.00  0.00  0.00
  WS02006115WS02006116    1.00   0.03  0.00  0.00  0.97  0.00  0.00  0.01  0.00  0.00
  WS02006113WS02006111    1.00   0.02  0.00  0.00  0.00  0.98  0.00  0.00  0.11  0.00
  WS02006112WS02006115    1.00   0.02  0.00  0.00  0.97  0.00  0.00  0.00  0.00  0.00
  WS02006111WS02006112    1.00   0.02  0.00  0.00  0.97  0.00  0.00  0.00  0.98  0.00
  WS02006110WS02006113    1.00   0.01  0.01  0.00  0.98  0.00  0.00  0.00  0.00  0.00
  WS02006109WS02006110    1.00   0.00  0.01  0.00  0.98  0.00  0.01  0.00  0.00  0.00
  WS02004411WS02004412    1.00   0.04  0.00  0.00  0.96  0.00  0.00  0.00  0.00  0.00
  WS02004401WS02004402    1.00   0.03  0.00  0.00  0.97  0.00  0.00  0.00  0.00  0.00
  WS02004413WS02003067    1.00   0.04  0.01  0.00  0.00  0.00  0.94  0.00  0.00  0.00
  WS02004412WS02004413    1.00   0.04  0.00  0.00  0.96  0.00  0.00  0.00  0.03  0.00
  WS02004410WS02004411    1.00   0.04  0.00  0.00  0.96  0.00  0.00  0.00  0.04  0.00
  WS02004409WS02004410    1.00   0.04  0.00  0.00  0.96  0.00  0.00  0.00  0.04  0.00
  WS02004407WS02004409    1.00   0.04  0.00  0.00  0.96  0.00  0.00  0.00  0.89  0.00
  WS02004406WS02004407    1.00   0.00  0.04  0.00  0.96  0.00  0.00  0.00  0.00  0.00
  WS02004405WS02004406    1.00   0.00  0.00  0.00  1.00  0.00  0.00  0.00  0.00  0.00
  WS02004404WS02004405    1.00   0.00  0.00  0.00  1.00  0.00  0.00  0.00  0.00  0.00
  WS02004403WS02004404    1.00   0.00  0.03  0.00  0.97  0.00  0.00  0.00  0.01  0.00
  WS02004402WS02004403    1.00   0.03  0.00  0.00  0.97  0.00  0.00  0.00  0.00  0.00
  WS02004139WS02001211    1.00   0.00  0.00  0.00  0.99  0.00  0.01  0.00  0.00  0.00
  WS02004138WS02004139    1.00   0.00  0.00  0.00  0.99  0.01  0.00  0.00  1.00  0.00
  WS02003067WS02003066    1.00   0.06  0.00  0.00  0.94  0.00  0.00  0.00  0.00  0.00
  WS02001213WS02003059    1.00   0.00  0.01  0.00  0.99  0.00  0.00  0.00  0.00  0.00
  WS02001212WS02001213    1.00   0.01  0.00  0.00  0.89  0.00  0.10  0.00  0.00  0.00
  WS02001211WS02001212    1.00   0.00  0.01  0.00  0.99  0.00  0.00  0.00  0.00  0.00
  WS02003072WS02003073    1.00   0.00  0.00  0.00  0.00  0.00  0.00  1.00  0.00  0.00
  WS02003069WS02003072    1.00   0.00  0.00  0.00  0.99  0.01  0.00  0.00  0.28  0.00
  WS02003060WS02003069    1.00   0.00  0.00  0.00  0.99  0.01  0.00  0.00  0.22  0.00
  WS02003059WS02003060    1.00   0.00  0.00  0.00  1.00  0.00  0.00  0.00  0.02  0.00
  HS02004901HS02004770    1.00   0.05  0.00  0.00  0.95  0.00  0.00  0.00  0.02  0.00
  HS02004876HS02004881    1.00   0.02  0.00  0.00  0.98  0.00  0.00  0.00  0.00  0.00
  HS02004870HS02004876    1.00   0.01  0.00  0.00  0.99  0.00  0.00  0.00  0.95  0.00
  HS02004842HS02004848    1.00   0.00  0.05  0.00  0.95  0.00  0.00  0.00  0.69  0.00
  HS02004837HS02004842    1.00   0.00  0.00  0.00  0.99  0.01  0.00  0.00  0.11  0.00
  HS02004830HS02004837    1.00   0.00  0.00  0.00  1.00  0.00  0.00  0.00  0.99  0.00
  HS02004824HS02004830    1.00   0.00  0.00  0.00  1.00  0.00  0.00  0.00  0.00  0.00
  HS02004817HS02004824    1.00   0.00  0.00  0.00  1.00  0.00  0.00  0.00  1.00  0.00
  HS02004770HS02004777    1.00   0.00  0.05  0.00  0.95  0.00  0.00  0.00  0.07  0.00
  HS02004799HS02004480    1.00   0.00  0.03  0.00  0.94  0.00  0.03  0.00  0.00  0.00
  HS02004792HS02004799    1.00   0.00  0.00  0.00  0.99  0.01  0.00  0.00  0.98  0.00
  HS02004788HS02004792    1.00   0.00  0.00  0.00  0.99  0.01  0.00  0.00  0.98  0.00
  HS02004785HS02004788    1.00   0.00  0.00  0.00  1.00  0.00  0.00  0.00  0.00  0.00
  HS02004777HS02004785    1.00   0.00  0.00  0.00  1.00  0.00  0.00  0.00  0.20  0.00
  HS02004480HS02004478    1.00   0.05  0.00  0.00  0.75  0.00  0.00  0.20  0.00  0.00
  HS02004479HS02004480    1.00   0.03  0.00  0.00  0.97  0.00  0.00  0.00  0.16  0.00
  HS02004862HS02004870    1.00   0.00  0.00  0.00  1.00  0.00  0.00  0.00  0.06  0.00
  HS02004848HS02004852    1.00   0.05  0.00  0.00  0.95  0.00  0.00  0.00  0.71  0.00
  HS02004856HS02004862    1.00   0.00  0.07  0.00  0.93  0.00  0.00  0.00  0.74  0.00
  HS02004852HS02004856    1.00   0.05  0.01  0.00  0.95  0.00  0.00  0.00  0.83  0.00
  HS02004802HS02004478    1.00   0.05  0.00  0.00  0.95  0.00  0.00  0.00  0.01  0.00
  HS02004478WS02006287    1.00   0.06  0.00  0.00  0.88  0.06  0.00  0.00  0.77  0.00
  HS02004817HS02004807    1.00   0.00  0.05  0.00  0.95  0.00  0.00  0.00  0.00  0.00
  HS02004807HS02004802    1.00   0.05  0.00  0.00  0.95  0.00  0.00  0.00  0.01  0.00
  YS02001759YS02001757    1.00   0.00  0.00  0.00  1.00  0.00  0.00  0.00  0.17  0.00
  YS02001762YS02001759    1.00   0.00  0.00  0.00  1.00  0.00  0.00  0.00  0.04  0.00
  YS02001765YS02001762    1.00   0.00  0.00  0.00  1.00  0.00  0.00  0.00  0.22  0.00
  YS02001770YS02001767    1.00   0.00  0.00  0.00  1.00  0.00  0.00  0.00  0.00  0.00
  YS02001774YS02001770    1.00   0.00  0.05  0.00  0.95  0.00  0.00  0.00  0.07  0.00
  YS02001779YS02001774    1.00   0.00  0.00  0.00  1.00  0.00  0.00  0.00  0.26  0.00
  YS02001649YS02001757    1.00   0.00  0.00  0.00  1.00  0.00  0.00  0.00  0.19  0.00
  YS02001767YS02001765    1.00   0.00  0.00  0.00  1.00  0.00  0.00  0.00  0.01  0.00
  YS02006561YS02001783    1.00   0.07  0.00  0.00  0.00  0.93  0.00  0.00  0.73  0.00
  YS02001783YS02001784    1.00   0.00  0.07  0.00  0.93  0.00  0.00  0.00  0.00  0.00
  YS02001784YS02001785    1.00   0.00  0.00  0.00  1.00  0.00  0.00  0.00  0.25  0.00
  YS02001788YS02001790    1.00   0.00  0.00  0.00  0.07  0.93  0.00  0.00  0.76  0.00
  YS02001790YS02001791    1.00   0.00  0.00  0.00  0.02  0.98  0.00  0.00  0.55  0.00
  YS02001791YS02001793    1.00   0.00  0.00  0.00  0.00  1.00  0.00  0.00  0.00  0.00
  YS02001910YS02001907    1.00   0.00  0.00  0.00  0.97  0.00  0.00  0.03  0.13  0.00
  YS02001786YS02001788    1.00   0.00  0.00  0.00  0.08  0.92  0.00  0.00  0.00  0.00
  YS02001915YS02001910    1.00   0.00  0.00  0.00  0.99  0.01  0.00  0.00  0.24  0.00
  YS02001918YS02001915    1.00   0.00  0.01  0.00  0.98  0.02  0.00  0.00  0.82  0.00
  YS02001923YS02001920    1.00   0.00  0.00  0.00  1.00  0.00  0.00  0.00  1.00  0.00
  YS02001926YS02001923    1.00   0.00  0.04  0.00  0.00  0.00  0.96  0.00  0.00  0.00
  YS02001929YS02001926    1.00   0.00  0.05  0.00  0.95  0.00  0.00  0.00  0.87  0.00
  YS02001920YS02001918    1.00   0.00  0.01  0.00  0.99  0.00  0.00  0.00  0.00  0.00
  YS02001629YS02163301    1.00   0.06  0.00  0.00  0.93  0.00  0.00  0.00  0.00  0.00
  YS02001619YS02001622    1.00   0.05  0.00  0.00  0.95  0.00  0.00  0.00  0.00  0.00
  YS02001622YS02001625    1.00   0.05  0.00  0.00  0.95  0.00  0.00  0.00  0.13  0.00
  YS02001625YS02001629    1.00   0.05  0.03  0.00  0.92  0.00  0.01  0.00  0.00  0.00
  YS02163301YS02001633    1.00   0.00  0.06  0.00  0.94  0.00  0.00  0.00  0.00  0.00
  YS02163601YS02164001    1.00   0.00  0.04  0.00  0.96  0.00  0.00  0.00  0.00  0.00
  YS02164001YS02001641    1.00   0.01  0.03  0.00  0.96  0.00  0.00  0.00  0.07  0.00
  YS02001641YS02001644    1.00   0.00  0.01  0.00  0.99  0.00  0.00  0.00  0.00  0.00
  YS02001647YS02001649    1.00   0.00  0.07  0.00  0.93  0.00  0.00  0.00  0.01  0.00
  YS02006553YS02006556    1.00   0.02  0.00  0.00  0.98  0.00  0.00  0.00  0.03  0.00
  YS02006556YS02006558    1.00   0.00  0.00  0.00  1.00  0.00  0.00  0.00  0.00  0.00
  YSB6556YSB1171          1.00   0.03  0.02  0.00  0.96  0.00  0.00  0.00  0.00  0.00
  YS02001907YS02006553    1.00   0.00  0.02  0.00  0.97  0.00  0.00  0.00  0.00  0.00
  YS02006558YS02006561    1.00   0.07  0.00  0.00  0.00  0.93  0.00  0.00  0.70  0.00
  YS02001633YS02163601    1.00   0.00  0.01  0.00  0.99  0.00  0.00  0.00  0.19  0.00
  YS02001644YS02001647    1.00   0.00  0.07  0.00  0.93  0.00  0.00  0.00  0.00  0.00
  YS02001745YS02001748    1.00   0.00  0.00  0.00  0.87  0.01  0.00  0.11  0.21  0.00
  YS02001748YS02001751    1.00   0.00  0.00  0.00  0.98  0.02  0.00  0.00  0.24  0.00
  YS02001751YS02001754    1.00   0.00  0.00  0.00  0.92  0.00  0.00  0.07  0.02  0.00
  YS02001754YS02001757    1.00   0.00  0.00  0.00  0.99  0.01  0.00  0.00  0.26  0.00
  YS02001882YS02001884    1.00   0.06  0.00  0.00  0.94  0.00  0.00  0.00  0.00  0.00
  YS02001884YS02001887    1.00   0.03  0.01  0.00  0.96  0.00  0.00  0.00  0.00  0.00
  YS02001890YS02001895    1.00   0.00  0.06  0.00  0.94  0.00  0.00  0.00  0.00  0.00
  YS02001895YS02001898    1.00   0.06  0.00  0.00  0.93  0.00  0.01  0.00  0.00  0.00
  YS02001898YS02001901    1.00   0.06  0.00  0.00  0.93  0.00  0.00  0.00  0.02  0.00
  YS02001901YS02001904    1.00   0.06  0.00  0.00  0.94  0.00  0.00  0.00  0.00  0.00
  YS02001904YS02001907    1.00   0.00  0.06  0.00  0.94  0.00  0.00  0.00  0.00  0.00
  YS02001887YS02001890    1.00   0.00  0.00  0.00  0.97  0.00  0.02  0.00  0.00  0.00
  YS02001652YS02001649    1.00   0.00  0.00  0.00  1.00  0.00  0.00  0.00  0.25  0.00
  YS02001655YS02001652    1.00   0.00  0.00  0.00  0.92  0.00  0.00  0.07  0.02  0.00
  YS02001658YS02001655    1.00   0.00  0.06  0.00  0.92  0.02  0.00  0.00  0.11  0.00
  YS02001661YS02001658    1.00   0.06  0.00  0.00  0.87  0.07  0.00  0.00  0.21  0.00
  YS02001664YS02001661    1.00   0.05  0.00  0.00  0.76  0.19  0.00  0.00  0.86  0.00
  YSB1154YSB6556          1.00   0.04  0.00  0.00  0.96  0.00  0.00  0.00  0.02  0.00
  YSB1174YSB1171          1.00   0.03  0.01  0.00  0.96  0.00  0.00  0.00  0.00  0.00
  YSB1171HS02004479       1.00   0.03  0.00  0.00  0.97  0.00  0.00  0.00  0.13  0.00
  HS02004881HS02006253    1.00   0.03  0.00  0.00  0.84  0.00  0.00  0.13  0.64  0.00
  YS02001793JiankangQianchi    1.00   0.00  0.00  0.00  0.15  0.84  0.00  0.00  0.16  0.00
  YS02001757CaochengTiaoxuchi    1.00   0.00  0.08  0.00  0.92  0.00  0.00  0.00  0.00  0.00
  WSF200WS02003060        1.00   0.00  0.06  0.00  0.77  0.16  0.00  0.00  0.07  0.00
  1                       1.00   0.00  0.00  0.00  0.00  1.00  0.00  0.00  0.59  0.00
  2                       1.00   1.00  0.00  0.00  0.00  0.00  0.00  0.00  0.00  0.00
  3                       1.00   0.35  0.00  0.00  0.00  0.65  0.00  0.00  0.27  0.00
  4                       1.00   1.00  0.00  0.00  0.00  0.00  0.00  0.00  0.00  0.00
  
  
  *************************
  Conduit Surcharge Summary
  *************************
  
  ----------------------------------------------------------------------------
                                                           Hours        Hours 
                         --------- Hours Full --------   Above Full   Capacity
  Conduit                Both Ends  Upstream  Dnstream   Normal Flow   Limited
  ----------------------------------------------------------------------------
  WS02006229WS02006228        0.28      0.34      0.28      4.21         0.28
  WS02006256WS02006235        5.71      5.71      6.35      3.46         0.01
  WS02006249WS02006248        0.01      0.01      0.01      5.01         0.01
  WS02006247WS02006245        0.01      0.01      0.01      5.05         0.01
  WS02006235WS02006234        0.01      0.01      0.01      5.73         0.01
  WS02006231WS02006230        0.01      0.01      0.01      5.73         0.01
  WS02006230WS02006229        1.05      3.00      1.05      5.82         1.05
  WS02006228WS02006109        0.31      0.52      0.31      5.59         0.31
  WS02006111WS02006112        0.01      0.01      4.89      0.01         0.01
  WS02006110WS02006113        0.01      0.01      0.41      0.01         0.01
  WS02006109WS02006110        0.01      0.01      0.52      0.01         0.01
  WS02004404WS02004405        0.01      0.01      0.01      5.63         0.01
  WS02003072WS02003073        0.01      0.01      0.01      5.38         0.01
  YS02001759YS02001757        5.22      5.22      5.36      0.01         0.01
  YS02001762YS02001759        5.16      5.16      5.22      0.01         0.01
  YS02001765YS02001762        5.07      5.07      5.16      0.01         0.01
  YS02001770YS02001767        4.90      4.91      4.93      0.01         0.60
  YS02001774YS02001770        4.58      4.58      5.13      0.01         0.01
  YS02001779YS02001774        1.79      1.79      5.13      0.01         0.01
  YS02001649YS02001757        5.18      5.18      5.36      0.01         0.01
  YS02001767YS02001765        4.93      4.93      5.07      0.01         0.01
  YS02001629YS02163301        4.45      4.45      4.78      0.01         0.01
  YS02001622YS02001625        0.01      0.01      3.74      0.01         0.01
  YS02001625YS02001629        0.01      0.01      3.74      0.01         0.01
  YS02163301YS02001633        4.78      4.78      5.08      0.01         0.01
  YS02163601YS02164001        5.07      5.07      5.18      0.01         0.01
  YS02164001YS02001641        5.07      5.07      5.11      0.01         0.01
  YS02001641YS02001644        5.11      5.11      5.12      0.01         0.22
  YS02001647YS02001649        3.62      3.62      5.18      0.01         0.01
  YS02001633YS02163601        5.03      5.03      5.18      0.01         0.01
  YS02001644YS02001647        3.62      3.62      5.12      0.01         0.01
  YS02001751YS02001754        0.01      0.01      2.63      0.01         0.01
  YS02001754YS02001757        3.63      3.63      5.36      0.01         0.01
  YS02001652YS02001649        3.84      3.84      5.18      0.01         0.01
  YS02001655YS02001652        0.01      0.01      3.37      0.01         0.01
  YS02001793JiankangQianchi        0.01      0.01      0.44      0.01         0.01
  YS02001757CaochengTiaoxuchi        0.01      0.01      5.36      0.01         0.01
  
  
  ***************
  Pumping Summary
  ***************
  
  ---------------------------------------------------------------------------------------------------------
                                                  Min       Avg       Max     Total     Power    % Time Off
                        Percent   Number of      Flow      Flow      Flow    Volume     Usage    Pump Curve
  Pump                 Utilized   Start-Ups       LPS       LPS       LPS  10^6 ltr     Kw-hr    Low   High
  ---------------------------------------------------------------------------------------------------------
  CC-Pump-1               65.96           1      0.00    196.94    200.00     3.660      9.68    0.0    5.6
  CC-Pump-2                0.00           0      0.00      0.00      0.00     0.000      0.00    0.0    0.0
  JK-Pump-1              100.00           1      0.00    153.11    300.00     3.407     63.59    0.0    0.0
  JK-Pump-2                0.00           0      0.00      0.00      0.00     0.000      0.00    0.0    0.0
  XR-Pump-1               31.92           2      0.00     83.88     95.00     0.770      6.41    0.0    0.0
  XR-Pump-2               74.46           2      0.00     92.95     95.00     1.909      9.31    0.0    0.0
  XR-Pump-3               29.78           2      0.00     80.00     95.00     0.684      5.49    0.0    0.0
  XR-Pump-4               74.46           2      0.00     92.95     95.00     1.909      9.31    0.0    0.0
  

  Analysis begun on:  Thu Jan  6 02:18:58 2022
  Analysis ended on:  Thu Jan  6 02:19:01 2022
  Total elapsed time: 00:00:03