
  EPA STORM WATER MANAGEMENT MODEL - VERSION 5.1 (Build 5.3.0.dev0)
  --------------------------------------------------------------

  WARNING 04: minimum elevation drop used for Conduit WS02004404WS02004405
  WARNING 03: negative offset ignored for Link YS02001904YS02001907
  
  *********************************************************
  NOTE: The summary statistics displayed in this report are
  based on results found at every computational time step,  
  not just on results from each reporting time step.
  *********************************************************
  
  ****************
  Analysis Options
  ****************
  Flow Units ............... LPS
  Process Models:
    Rainfall/Runoff ........ YES
    RDII ................... NO
    Snowmelt ............... NO
    Groundwater ............ NO
    Flow Routing ........... YES
    Ponding Allowed ........ NO
    Water Quality .......... NO
  Infiltration Method ...... HORTON
  Flow Routing Method ...... DYNWAVE
  Surcharge Method ......... EXTRAN
  Starting Date ............ 08/28/2015 08:00:00
  Ending Date .............. 08/28/2015 15:50:00
  Antecedent Dry Days ...... 8.0
  Report Time Step ......... 00:01:00
  Wet Time Step ............ 00:01:00
  Dry Time Step ............ 00:01:00
  Routing Time Step ........ 5.00 sec
  Variable Time Step ....... YES
  Maximum Trials ........... 8
  Number of Threads ........ 4
  Head Tolerance ........... 0.001500 m
  
  
  **************************        Volume         Depth
  Runoff Quantity Continuity     hectare-m            mm
  **************************     ---------       -------
  Total Precipitation ......         2.455         5.375
  Evaporation Loss .........         0.000         0.000
  Infiltration Loss ........         0.614         1.344
  Surface Runoff ...........         0.980         2.145
  Final Storage ............         0.862         1.887
  Continuity Error (%) .....        -0.018
  
  
  **************************        Volume        Volume
  Flow Routing Continuity        hectare-m      10^6 ltr
  **************************     ---------     ---------
  Dry Weather Inflow .......         0.616         6.165
  Wet Weather Inflow .......         0.979         9.790
  Groundwater Inflow .......         0.000         0.000
  RDII Inflow ..............         0.000         0.000
  External Inflow ..........         0.102         1.024
  External Outflow .........         1.317        13.168
  Flooding Loss ............         0.125         1.246
  Evaporation Loss .........         0.000         0.000
  Exfiltration Loss ........         0.000         0.000
  Initial Stored Volume ....         0.076         0.761
  Final Stored Volume ......         0.338         3.376
  Continuity Error (%) .....        -0.285
  
  
  *************************
  Highest Continuity Errors
  *************************
  Node HS02004842 (30.51%)
  Node YS02001884 (24.93%)
  Node YS02001774 (12.67%)
  Node YSB1171 (7.78%)
  Node HS02004901 (6.23%)
  
  
  ***************************
  Time-Step Critical Elements
  ***************************
  Link WS02006252WS02006251 (84.26%)
  Link 3 (9.56%)
  Link WS02006280WS02006229 (2.28%)
  
  
  ********************************
  Highest Flow Instability Indexes
  ********************************
  Link WS02006113WS02006111 (45)
  Link WS02006111WS02006112 (33)
  Link YS02163301YS02001633 (2)
  Link YS02001652YS02001649 (2)
  Link YS02001629YS02163301 (2)
  
  
  *************************
  Routing Time Step Summary
  *************************
  Minimum Time Step           :     0.50 sec
  Average Time Step           :     0.90 sec
  Maximum Time Step           :     5.00 sec
  Percent in Steady State     :    -0.00
  Average Iterations per Step :     2.18
  Percent Not Converging      :     2.29
  
  
  ***************************
  Subcatchment Runoff Summary
  ***************************
  
  ------------------------------------------------------------------------------------------------------------------------------
                            Total      Total      Total      Total     Imperv       Perv      Total       Total     Peak  Runoff
                           Precip      Runon       Evap      Infil     Runoff     Runoff     Runoff      Runoff   Runoff   Coeff
  Subcatchment                 mm         mm         mm         mm         mm         mm         mm    10^6 ltr      LPS
  ------------------------------------------------------------------------------------------------------------------------------
  sub0                       5.37       0.00       0.00       0.38       3.73       0.00       3.73        0.00     1.27   0.695
  sub1                       5.37       0.00       0.00       0.59       3.53       0.00       3.53        0.02     6.53   0.657
  sub2                       5.37       0.00       0.00       1.99       2.48       0.00       2.48        0.02     5.75   0.462
  sub3                       5.37       0.00       0.00       1.99       2.45       0.00       2.45        0.06    11.75   0.455
  sub4                       5.37       0.00       0.00       0.59       3.39       0.00       3.39        0.07    13.11   0.632
  sub5                       5.37       0.00       0.00       0.38       3.69       0.00       3.69        0.04    11.61   0.686
  sub7                       5.37       0.00       0.00       0.48       3.64       0.00       3.64        0.01     4.14   0.677
  sub8                       5.37       0.00       0.00       0.48       3.63       0.00       3.63        0.02     7.27   0.675
  sub9                       5.37       0.00       0.00       0.48       3.63       0.00       3.63        0.02     5.38   0.675
  sub10                      5.37       0.00       0.00       0.43       3.65       0.00       3.65        0.04    11.61   0.680
  sub11                      5.37       0.00       0.00       0.43       3.67       0.00       3.67        0.04    13.69   0.683
  sub12                      5.37       0.00       0.00       0.70       3.49       0.00       3.49        0.03    11.71   0.649
  sub14                      5.37       0.00       0.00       0.48       3.62       0.00       3.62        0.03    10.51   0.674
  sub15                      5.37       0.00       0.00       1.61       2.78       0.00       2.78        0.05    14.25   0.518
  sub16                      5.37       0.00       0.00       1.77       2.68       0.00       2.68        0.03    10.26   0.499
  sub17                      5.37       0.00       0.00       1.72       2.72       0.00       2.72        0.02     8.28   0.506
  sub22                      5.37       0.00       0.00       2.31       2.28       0.00       2.28        0.14    46.88   0.423
  sub23                      5.37       0.00       0.00       1.99       2.52       0.00       2.52        0.12    39.98   0.468
  sub60                      5.37       0.00       0.00       0.64       2.37       0.00       2.37        0.72    64.64   0.442
  sub61                      5.37       0.00       0.00       0.91       2.56       0.00       2.56        0.79    81.69   0.477
  sub62                      5.37       0.00       0.00       0.43       2.74       0.00       2.74        0.84    83.30   0.510
  sub63                      5.37       0.00       0.00       1.56       2.29       0.00       2.29        0.69    76.49   0.426
  sub64                      5.37       0.00       0.00       0.81       2.27       0.00       2.27        0.69    61.36   0.422
  sub65                      5.37       0.00       0.00       0.70       2.29       0.00       2.29        0.71    62.22   0.427
  sub66                      5.37       0.00       0.00       1.56       1.98       0.00       1.98        0.61    56.37   0.369
  sub67                      5.37       0.00       0.00       0.43       3.04       0.00       3.04        0.94   107.71   0.565
  sub68                      5.37       0.00       0.00       0.75       2.73       0.00       2.73        0.84    90.50   0.508
  sub69                      5.37       0.00       0.00       0.81       2.97       0.00       2.97        0.69    90.66   0.553
  sub70                      5.37       3.03       0.00       2.86       3.59       0.00       3.59        0.82    70.94   0.427
  sub71                      5.37       0.00       0.00       0.43       2.61       0.00       2.61        0.62    57.99   0.486
  sub72                      5.37       0.00       0.00       0.38       1.81       0.00       1.81        0.37    26.99   0.337
  sub73                      5.37       3.49       0.00       3.01       3.60       0.00       3.60        0.85    60.66   0.406
  sub74                      5.37       0.00       0.00       4.03       0.90       0.00       0.90        0.36    50.75   0.167
  
  
  ******************
  Node Depth Summary
  ******************
  
  ---------------------------------------------------------------------------------
                                 Average  Maximum  Maximum  Time of Max    Reported
                                   Depth    Depth      HGL   Occurrence   Max Depth
  Node                 Type       Meters   Meters   Meters  days hr:min      Meters
  ---------------------------------------------------------------------------------
  WS02001211           JUNCTION     0.61     0.63     5.46     0  03:16        0.63
  WS02001212           JUNCTION     0.34     0.36     5.43     0  03:15        0.36
  WS02001213           JUNCTION     0.57     0.61     5.37     0  03:13        0.61
  WS02003069           JUNCTION     0.40     0.46     5.04     0  03:13        0.46
  WS02003072           JUNCTION     0.47     0.53     4.90     0  03:13        0.53
  WS02003073           JUNCTION     0.28     0.32     4.38     0  03:14        0.32
  WS02003060           JUNCTION     0.36     0.41     5.34     0  03:12        0.41
  WS02003066           JUNCTION     0.22     0.27     5.82     0  03:10        0.27
  WS02003059           JUNCTION     0.63     0.68     5.36     0  03:13        0.68
  WS02003067           JUNCTION     0.56     0.65     5.97     0  03:10        0.65
  WS02004401           JUNCTION     0.64     0.75     6.75     0  03:06        0.75
  WS02004402           JUNCTION     0.68     0.78     6.74     0  03:06        0.78
  WS02004403           JUNCTION     0.70     0.80     6.73     0  03:06        0.80
  WS02004404           JUNCTION     0.77     0.88     6.73     0  03:06        0.88
  WS02004406           JUNCTION     0.78     0.88     6.71     0  03:07        0.88
  WS02004409           JUNCTION     0.46     0.57     6.34     0  03:09        0.57
  WS02004410           JUNCTION     0.48     0.59     6.31     0  03:09        0.59
  WS02004411           JUNCTION     0.50     0.60     6.28     0  03:09        0.60
  WS02004412           JUNCTION     0.52     0.62     6.26     0  03:10        0.62
  WS02004413           JUNCTION     0.68     0.78     6.25     0  03:10        0.78
  WS02004405           JUNCTION     0.77     0.87     6.72     0  03:06        0.87
  WS02006109           JUNCTION     0.72     0.83     7.45     0  03:02        0.83
  WS02006110           JUNCTION     0.72     0.82     7.40     0  03:02        0.82
  WS02006111           JUNCTION     0.21     0.25     6.96     0  03:03        0.25
  WS02006112           JUNCTION     0.81     0.93     6.81     0  03:05        0.93
  WS02006113           JUNCTION     0.32     0.39     7.28     0  03:02        0.39
  WS02006115           JUNCTION     0.53     0.64     6.78     0  03:06        0.64
  WS02006116           JUNCTION     0.62     0.72     6.76     0  03:06        0.72
  WS02006230           JUNCTION     0.66     0.82     7.57     0  03:02        0.82
  WS02006231           JUNCTION     0.44     0.53     7.66     0  03:04        0.53
  WS02006232           JUNCTION     0.58     0.67     7.71     0  03:05        0.67
  WS02006234           JUNCTION     0.49     0.59     7.75     0  03:05        0.59
  WS02006235           JUNCTION     0.52     0.62     7.78     0  03:05        0.62
  WS02006238           JUNCTION     0.54     0.64     7.79     0  03:05        0.64
  WS02006240           JUNCTION     0.43     0.53     7.83     0  03:06        0.53
  WS02006242           JUNCTION     0.49     0.59     7.86     0  03:06        0.59
  WS02006243           JUNCTION     0.37     0.46     7.88     0  03:06        0.46
  WS02006245           JUNCTION     0.35     0.43     7.92     0  03:05        0.43
  WS02006247           JUNCTION     0.37     0.45     7.95     0  03:05        0.45
  WS02006248           JUNCTION     0.32     0.39     7.98     0  03:05        0.39
  WS02006249           JUNCTION     0.36     0.43     8.03     0  03:04        0.43
  WS02006239           JUNCTION     0.50     0.60     7.81     0  03:06        0.60
  WS02006251           JUNCTION     0.35     0.41     8.08     0  03:02        0.41
  WS02006252           JUNCTION     0.30     0.35     8.59     0  02:50        0.35
  WS02006253           JUNCTION     0.38     0.44     8.08     0  03:02        0.44
  WS02006256           JUNCTION     0.96     1.15     8.09     0  00:00        1.11
  WS02004138           JUNCTION     0.14     0.14     7.39     0  00:20        0.14
  WS02004407           JUNCTION     0.21     0.26     6.57     0  03:07        0.26
  WS02006228           JUNCTION     0.70     0.84     7.49     0  03:02        0.84
  WS02006229           JUNCTION     0.68     0.82     7.51     0  03:02        0.82
  WS02006280           JUNCTION     0.05     0.14     8.41     0  02:19        0.14
  WS02006284           JUNCTION     0.34     0.47     8.87     0  02:19        0.47
  WS02006287           JUNCTION     0.07     0.20     9.15     0  02:19        0.20
  WSF200               JUNCTION     0.21     0.26     5.50     0  03:10        0.26
  HS02004901           JUNCTION     0.10     0.22    10.04     0  02:17        0.22
  HS02004881           JUNCTION     0.00     0.02     9.05     0  02:18        0.02
  HS02004876           JUNCTION     0.03     0.10     9.13     0  02:17        0.10
  HS02004870           JUNCTION     0.01     0.04     9.32     0  02:19        0.04
  HS02004862           JUNCTION     0.01     0.04     9.43     0  02:20        0.04
  HS02004856           JUNCTION     0.07     0.10     9.53     0  02:19        0.10
  HS02004852           JUNCTION     0.01     0.02     9.54     0  02:20        0.02
  HS02004848           JUNCTION     0.01     0.02     9.63     0  02:18        0.02
  HS02004842           JUNCTION     0.32     0.36     9.63     0  02:18        0.36
  HS02004837           JUNCTION     0.02     0.05     9.63     0  02:18        0.05
  HS02004830           JUNCTION     0.04     0.06     9.53     0  02:18        0.06
  HS02004824           JUNCTION     0.02     0.04     9.44     0  02:22        0.04
  HS02004817           JUNCTION     0.42     0.51     9.36     0  02:19        0.51
  HS02004807           JUNCTION     0.11     0.19     9.36     0  02:19        0.19
  HS02004802           JUNCTION     0.14     0.23     9.36     0  02:19        0.23
  HS02004799           JUNCTION     0.09     0.24     9.45     0  02:17        0.24
  HS02004792           JUNCTION     0.02     0.09     9.61     0  02:16        0.09
  HS02004788           JUNCTION     0.02     0.07     9.97     0  02:18        0.07
  HS02004785           JUNCTION     0.03     0.13    10.03     0  02:17        0.13
  HS02004777           JUNCTION     0.13     0.24    10.04     0  02:17        0.24
  HS02004770           JUNCTION     0.10     0.21    10.04     0  02:17        0.21
  HS02004480           JUNCTION     0.06     0.19     9.43     0  02:17        0.19
  HS02004479           JUNCTION     0.09     0.22     9.43     0  02:18        0.22
  HS02004478           JUNCTION     0.05     0.12     9.34     0  02:19        0.12
  YS02001745           JUNCTION     0.07     0.11     7.63     0  03:01        0.11
  YS02001748           JUNCTION     0.33     0.46     7.54     0  04:49        0.46
  YS02001751           JUNCTION     0.51     0.66     7.54     0  04:46        0.65
  YS02001754           JUNCTION     0.76     0.94     7.54     0  04:45        0.93
  YS02001762           JUNCTION     0.96     1.18     7.58     0  03:37        1.14
  YS02001765           JUNCTION     0.91     1.13     7.58     0  03:34        1.08
  YS02001767           JUNCTION     0.87     1.19     7.67     0  03:34        1.04
  YS02001770           JUNCTION     0.87     1.03     7.52     0  04:56        1.03
  YS02001774           JUNCTION     0.94     1.10     7.52     0  04:58        1.10
  YS02001779           JUNCTION     0.69     0.84     7.53     0  04:50        0.84
  YS02001882           JUNCTION     0.26     0.42     7.13     0  02:54        0.42
  YS02001884           JUNCTION     0.36     0.52     7.13     0  02:53        0.52
  YS02001759           JUNCTION     0.99     1.21     7.57     0  03:37        1.16
  YS02001887           JUNCTION     0.43     0.60     7.13     0  02:53        0.60
  YS02001890           JUNCTION     0.46     0.63     7.13     0  02:54        0.63
  YS02001898           JUNCTION     0.23     0.38     7.12     0  02:54        0.38
  YS02001901           JUNCTION     0.35     0.51     7.12     0  02:55        0.51
  YS02001904           JUNCTION     0.33     0.48     7.11     0  02:55        0.48
  YS02001907           JUNCTION     0.66     0.83     7.12     0  02:54        0.83
  YS02001910           JUNCTION     0.45     0.61     7.12     0  02:54        0.61
  YS02001915           JUNCTION     0.25     0.40     7.12     0  02:54        0.40
  YS02001918           JUNCTION     0.07     0.09     7.16     0  03:03        0.09
  YS02001619           JUNCTION     0.47     0.61     7.54     0  04:58        0.61
  YS02001629           JUNCTION     0.82     0.98     7.53     0  04:35        0.98
  YS02001641           JUNCTION     0.92     1.19     7.63     0  04:25        1.17
  YS02001644           JUNCTION     0.93     1.16     7.59     0  04:25        1.15
  YS02001652           JUNCTION     0.77     0.95     7.54     0  04:47        0.95
  YS02001655           JUNCTION     0.54     0.69     7.54     0  04:24        0.69
  YS02001920           JUNCTION     0.16     0.19     7.20     0  03:02        0.19
  YS02001923           JUNCTION     0.06     0.08     7.34     0  03:02        0.08
  YS02001926           JUNCTION     0.13     0.16     7.61     0  03:01        0.16
  YS02001929           JUNCTION     0.06     0.08     7.77     0  03:01        0.08
  YS02001658           JUNCTION     0.27     0.39     7.54     0  04:47        0.39
  YS02001661           JUNCTION     0.14     0.19     7.59     0  02:45        0.19
  YS02001664           JUNCTION     0.06     0.11     8.03     0  02:45        0.11
  YS02001622           JUNCTION     0.49     0.62     7.53     0  04:47        0.62
  YS02001633           JUNCTION     0.91     1.17     7.62     0  04:25        1.14
  YS02001649           JUNCTION     0.97     1.14     7.53     0  04:47        1.14
  YS02001757           JUNCTION     1.09     1.27     7.53     0  04:55        1.27
  YS02001895           JUNCTION     0.23     0.38     7.13     0  02:54        0.38
  YS02001625           JUNCTION     0.77     0.94     7.54     0  05:01        0.93
  YS02163301           JUNCTION     0.85     1.06     7.58     0  04:25        1.04
  YS02163601           JUNCTION     0.96     1.25     7.64     0  04:25        1.21
  YS02164001           JUNCTION     0.90     1.19     7.64     0  04:25        1.16
  YS02001647           JUNCTION     0.76     0.93     7.54     0  04:29        0.93
  YSB1154              JUNCTION     0.23     0.37     9.43     0  02:18        0.37
  YSB6556              JUNCTION     0.13     0.26     9.43     0  02:17        0.26
  YSB1174              JUNCTION     0.18     0.32     9.43     0  02:18        0.32
  YSB1171              JUNCTION     0.38     0.52     9.43     0  02:17        0.52
  YS02006553           JUNCTION     0.66     0.83     7.11     0  02:54        0.83
  YS02006561           JUNCTION     0.13     0.21     6.87     0  02:55        0.21
  YS02006556           JUNCTION     0.64     0.80     7.11     0  02:55        0.80
  YS02006558           JUNCTION     0.68     0.84     7.11     0  02:55        0.84
  YS02001783           JUNCTION     0.22     0.37     6.51     0  02:55        0.37
  YS02001784           JUNCTION     0.25     0.40     6.47     0  02:55        0.40
  YS02001786           JUNCTION     0.22     0.34     6.37     0  02:55        0.34
  YS02001788           JUNCTION     0.15     0.25     6.23     0  02:56        0.25
  YS02001790           JUNCTION     0.19     0.31     5.95     0  02:56        0.31
  YS02001791           JUNCTION     0.12     0.20     5.67     0  02:56        0.20
  YS02001793           JUNCTION     0.08     0.13     4.96     0  02:56        0.13
  WS02004139           JUNCTION     0.55     0.57     5.48     0  03:16        0.57
  WSC                  OUTFALL      0.28     0.32     0.99     0  03:14        0.32
  3                    OUTFALL      0.04     0.13     6.13     0  00:00        0.11
  4                    OUTFALL      0.00     0.00     7.00     0  00:00        0.00
  5                    OUTFALL      0.00     0.00     5.00     0  00:00        0.00
  JK-storage           STORAGE      0.04     3.00     3.80     0  00:00        2.70
  CC-storage           STORAGE      0.36     0.51     7.51     0  05:04        0.51
  XR-storage           STORAGE      7.56     7.72     5.72     0  02:32        7.72
  
  
  *******************
  Node Inflow Summary
  *******************
  
  -------------------------------------------------------------------------------------------------
                                  Maximum  Maximum                  Lateral       Total        Flow
                                  Lateral    Total  Time of Max      Inflow      Inflow     Balance
                                   Inflow   Inflow   Occurrence      Volume      Volume       Error
  Node                 Type           LPS      LPS  days hr:min    10^6 ltr    10^6 ltr     Percent
  -------------------------------------------------------------------------------------------------
  WS02001211           JUNCTION      7.35   197.93     0  02:53       0.207        5.45       0.590
  WS02001212           JUNCTION      0.00   198.25     0  02:53           0        5.42       0.293
  WS02001213           JUNCTION      0.00   198.53     0  02:52           0        5.41       0.379
  WS02003069           JUNCTION      0.32   619.85     0  03:12     0.00902        12.2       0.213
  WS02003072           JUNCTION      0.00   619.84     0  03:13           0        12.1       0.267
  WS02003073           JUNCTION      1.82   621.65     0  03:14      0.0514        12.2       0.296
  WS02003060           JUNCTION     16.53   619.52     0  03:12       0.466        12.2       0.203
  WS02003066           JUNCTION      0.00   407.07     0  03:10           0        6.37       0.065
  WS02003059           JUNCTION      0.00   199.21     0  02:51           0        5.39       0.683
  WS02003067           JUNCTION      0.00   407.06     0  03:10           0        6.38       0.141
  WS02004401           JUNCTION      0.00   408.75     0  03:04           0         6.6       0.313
  WS02004402           JUNCTION      0.00   408.47     0  03:05           0        6.58       0.296
  WS02004403           JUNCTION      0.00   408.33     0  03:06           0        6.56       0.270
  WS02004404           JUNCTION      0.16   408.42     0  03:06     0.00457        6.55       0.205
  WS02004406           JUNCTION      0.00   408.41     0  03:06           0        6.51       0.501
  WS02004409           JUNCTION      0.00   408.38     0  03:07           0        6.47       0.236
  WS02004410           JUNCTION      0.00   407.89     0  03:08           0        6.46       0.268
  WS02004411           JUNCTION      0.00   407.51     0  03:08           0        6.44       0.277
  WS02004412           JUNCTION      0.00   407.27     0  03:09           0        6.42       0.301
  WS02004413           JUNCTION      0.00   407.12     0  03:09           0         6.4       0.450
  WS02004405           JUNCTION      0.04   408.43     0  03:06     0.00107        6.53       0.307
  WS02006109           JUNCTION      1.23   408.58     0  03:02      0.0347        6.69       0.321
  WS02006110           JUNCTION      0.00   408.57     0  03:02           0        6.67       0.286
  WS02006111           JUNCTION      0.00   418.06     0  03:02           0        6.64       0.061
  WS02006112           JUNCTION      8.28   411.46     0  03:02      0.0233        6.66       0.425
  WS02006113           JUNCTION      0.00   408.62     0  03:02           0        6.65       0.138
  WS02006115           JUNCTION      0.00   409.95     0  03:03           0        6.64       0.287
  WS02006116           JUNCTION      0.00   409.19     0  03:04           0        6.62       0.274
  WS02006230           JUNCTION     10.28   327.25     0  03:10        0.29        5.88       0.247
  WS02006231           JUNCTION      0.00   316.43     0  03:10           0        5.59       0.144
  WS02006232           JUNCTION      0.00   316.18     0  03:09           0        5.61       0.277
  WS02006234           JUNCTION      0.00   315.90     0  03:09           0        5.62       0.130
  WS02006235           JUNCTION      0.00   315.77     0  03:09           0        5.66       0.180
  WS02006238           JUNCTION      0.00   214.55     0  03:08           0        3.76       0.193
  WS02006240           JUNCTION      0.00   214.19     0  03:06           0        3.75       0.295
  WS02006242           JUNCTION      0.00   214.20     0  03:05           0        3.75       0.364
  WS02006243           JUNCTION      0.00   214.46     0  03:03           0        3.75       0.179
  WS02006245           JUNCTION      0.00   214.82     0  02:59           0        3.76       0.206
  WS02006247           JUNCTION      0.00   215.87     0  02:55           0        3.77       0.178
  WS02006248           JUNCTION      0.00   216.73     0  02:55           0        3.77       0.121
  WS02006249           JUNCTION      0.00   217.47     0  02:53           0        3.78       0.253
  WS02006239           JUNCTION      0.00   214.33     0  03:08           0        3.75       0.287
  WS02006251           JUNCTION      0.08   219.55     0  02:50     0.00217        3.79       0.231
  WS02006252           JUNCTION      0.00   200.00     0  02:50           0        3.66       0.012
  WS02006253           JUNCTION      1.27    36.03     0  02:18     0.00302       0.131       3.014
  WS02006256           JUNCTION      0.00   300.00     0  00:00           0        2.98       0.090
  WS02004138           JUNCTION      0.00   190.00     0  01:40           0        5.27       0.061
  WS02004407           JUNCTION      0.00   408.39     0  03:07           0        6.48       0.107
  WS02006228           JUNCTION      0.00   407.34     0  03:02           0        6.67       0.222
  WS02006229           JUNCTION      0.00   407.35     0  03:01           0        6.69       0.183
  WS02006280           JUNCTION      0.00   186.84     0  02:19           0       0.826       0.008
  WS02006284           JUNCTION      0.10   186.85     0  02:19      0.0027       0.827       0.129
  WS02006287           JUNCTION      0.00   186.77     0  02:19           0       0.825       0.088
  WSF200               JUNCTION      0.00   407.07     0  03:10           0        6.36       0.062
  HS02004901           JUNCTION     10.26    10.26     0  02:11      0.0281      0.0282       6.639
  HS02004881           JUNCTION      4.14    35.06     0  02:18      0.0122       0.128       0.183
  HS02004876           JUNCTION      6.53    31.24     0  02:18      0.0235       0.117       0.452
  HS02004870           JUNCTION      7.27    24.85     0  02:18      0.0232      0.0932       0.114
  HS02004862           JUNCTION      5.95    18.09     0  02:19      0.0287      0.0702       0.241
  HS02004856           JUNCTION      5.38    12.19     0  02:18      0.0174      0.0429       3.474
  HS02004852           JUNCTION      0.00     7.16     0  02:18           0      0.0255       0.196
  HS02004848           JUNCTION     11.75    11.75     0  02:21      0.0551      0.0551       0.078
  HS02004842           JUNCTION      0.00     4.99     0  02:31           0      0.0426      43.910
  HS02004837           JUNCTION     17.96    22.24     0  02:17       0.219       0.249       0.327
  HS02004830           JUNCTION      0.15    22.38     0  02:18     0.00423       0.239       0.518
  HS02004824           JUNCTION     13.16    35.37     0  02:21      0.0722        0.31       0.174
  HS02004817           JUNCTION      0.60    35.97     0  02:22      0.0169       0.327       5.375
  HS02004807           JUNCTION     13.69    48.40     0  02:20      0.0426       0.353       1.213
  HS02004802           JUNCTION      0.00    48.62     0  02:21           0       0.348       1.180
  HS02004799           JUNCTION     10.51   117.86     0  02:16      0.0345       0.423       0.538
  HS02004792           JUNCTION     47.16   107.60     0  02:16       0.152       0.389       0.106
  HS02004788           JUNCTION     15.92    62.64     0  02:17       0.095       0.238       0.165
  HS02004785           JUNCTION      0.15    47.15     0  02:16     0.00423       0.145       0.332
  HS02004777           JUNCTION      0.03    47.61     0  02:14    0.000846       0.146       3.684
  HS02004770           JUNCTION     39.98    48.91     0  02:12        0.12       0.146       2.161
  HS02004480           JUNCTION      0.00   139.04     0  02:17           0       0.492       0.145
  HS02004479           JUNCTION      0.00    21.51     0  02:19           0      0.0817       0.900
  HS02004478           JUNCTION      0.00   186.76     0  02:18           0       0.825       0.076
  YS02001745           JUNCTION     64.65    64.65     0  03:01       0.719       0.719       0.107
  YS02001748           JUNCTION      0.04   139.49     0  03:28     0.00127       0.747       0.360
  YS02001751           JUNCTION      0.01   187.83     0  03:27     0.00031       0.745       1.369
  YS02001754           JUNCTION      0.26   128.85     0  03:25     0.00733       0.725       2.430
  YS02001762           JUNCTION      0.00   125.15     0  03:31           0        0.79       2.522
  YS02001765           JUNCTION      0.00    99.67     0  03:31           0       0.789       2.683
  YS02001767           JUNCTION      0.54   140.96     0  03:34      0.0151       0.806       3.959
  YS02001770           JUNCTION     83.46   142.85     0  03:37       0.846       0.925       2.966
  YS02001774           JUNCTION      0.00    96.80     0  03:33           0        0.18      14.506
  YS02001779           JUNCTION      0.01    84.78     0  03:34    0.000141      0.0785      15.675
  YS02001882           JUNCTION      0.00     3.62     0  02:08           0     0.00472      51.957
  YS02001884           JUNCTION      0.00    10.60     0  02:08           0       0.019      33.209
  YS02001759           JUNCTION     81.73   182.86     0  02:48        0.79        1.55       1.422
  YS02001887           JUNCTION    108.16   108.16     0  02:43       0.949       0.958       0.737
  YS02001890           JUNCTION      0.00   107.48     0  02:46           0       0.936       0.829
  YS02001898           JUNCTION      0.00   106.98     0  02:49           0       0.924       0.225
  YS02001901           JUNCTION      0.00   106.85     0  02:48           0       0.924       0.585
  YS02001904           JUNCTION      0.00   106.52     0  02:50           0       0.923       0.545
  YS02001907           JUNCTION      0.00   193.24     0  02:56           0        1.97       1.119
  YS02001910           JUNCTION      0.00    87.97     0  03:00           0        1.06       0.951
  YS02001915           JUNCTION     58.01    87.61     0  03:01       0.617        1.06       0.414
  YS02001918           JUNCTION      0.00    29.86     0  03:02           0       0.447       0.235
  YS02001619           JUNCTION     56.37    56.37     0  02:59       0.608       0.608       0.710
  YS02001629           JUNCTION      0.00   117.30     0  03:33           0       0.576       2.610
  YS02001641           JUNCTION      0.00   148.98     0  03:37           0         1.2       1.497
  YS02001644           JUNCTION     61.40   194.80     0  03:32        0.69        1.87       1.200
  YS02001652           JUNCTION      0.00   109.98     0  03:23           0       0.697       2.484
  YS02001655           JUNCTION      0.15   173.86     0  03:29     0.00434       0.727       1.614
  YS02001920           JUNCTION      2.87    29.87     0  03:02      0.0809       0.449       0.437
  YS02001923           JUNCTION      0.04    27.01     0  03:01     0.00106       0.369       0.076
  YS02001926           JUNCTION      0.05    27.03     0  03:01     0.00147       0.369       0.548
  YS02001929           JUNCTION     26.99    26.99     0  03:01       0.368       0.368       0.073
  YS02001658           JUNCTION      0.00   120.99     0  03:30           0       0.726       0.374
  YS02001661           JUNCTION      0.00    76.48     0  02:45           0       0.692       0.094
  YS02001664           JUNCTION     76.49    76.49     0  02:45       0.692       0.692       0.023
  YS02001622           JUNCTION      0.00    89.81     0  03:36           0       0.604       2.179
  YS02001633           JUNCTION     62.42   131.89     0  02:58       0.711        1.25       2.256
  YS02001649           JUNCTION      0.00   278.91     0  02:57           0        2.49       1.394
  YS02001757           JUNCTION      0.00   471.15     0  02:58           0        4.64       1.993
  YS02001895           JUNCTION      0.00   107.14     0  02:46           0       0.928       0.389
  YS02001625           JUNCTION      0.00   128.04     0  03:37           0       0.601       4.892
  YS02163301           JUNCTION      0.00    99.63     0  03:37           0        0.56       3.704
  YS02163601           JUNCTION      0.11   151.09     0  03:31      0.0031        1.22       2.296
  YS02164001           JUNCTION      0.00   157.10     0  03:31           0         1.2       1.316
  YS02001647           JUNCTION      0.00   194.39     0  03:02           0        1.83       1.205
  YSB1154              JUNCTION     11.61    11.61     0  02:15      0.0418      0.0431       3.463
  YSB6556              JUNCTION      0.00    11.58     0  02:18           0      0.0442       2.900
  YSB1174              JUNCTION     11.71    11.71     0  02:10      0.0305      0.0315       4.246
  YSB1171              JUNCTION      0.00    21.62     0  02:17           0      0.0812       8.436
  YS02006553           JUNCTION      0.00   193.30     0  02:57           0        1.96       0.727
  YS02006561           JUNCTION      0.00   283.73     0  02:55           0        2.77       0.023
  YS02006556           JUNCTION      0.00   193.41     0  03:02           0        1.96       0.523
  YS02006558           JUNCTION     91.38   283.74     0  02:54       0.864         2.8       0.159
  YS02001783           JUNCTION      0.00   283.73     0  02:55           0        2.77       0.052
  YS02001784           JUNCTION      1.06   284.79     0  02:55      0.0299         2.8       0.087
  YS02001786           JUNCTION      0.06   284.83     0  02:55     0.00159         2.8       0.084
  YS02001788           JUNCTION      0.07   284.90     0  02:56       0.002         2.8       0.048
  YS02001790           JUNCTION      0.15   285.05     0  02:56     0.00437         2.8       0.060
  YS02001791           JUNCTION      0.00   285.05     0  02:56           0         2.8       0.030
  YS02001793           JUNCTION      0.00   285.05     0  02:56           0         2.8       0.013
  WS02004139           JUNCTION      0.32   190.33     0  00:20     0.00905        5.28       0.579
  WSC                  OUTFALL       0.00   621.63     0  03:14           0        12.1       0.000
  3                    OUTFALL       0.00   250.55     0  00:00           0        1.05       0.000
  4                    OUTFALL       0.00     0.00     0  00:00           0           0       0.000 ltr
  5                    OUTFALL       0.00     0.00     0  00:00           0           0       0.000 ltr
  JK-storage           STORAGE       0.00   285.05     0  02:56           0        2.95      -0.921
  CC-storage           STORAGE       0.00   464.46     0  03:03           0        4.54       0.392
  XR-storage           STORAGE     305.10   305.10     0  02:53        6.84        7.44       0.000
  
  
  **********************
  Node Surcharge Summary
  **********************
  
  Surcharging occurs when water rises above the top of the highest conduit.
  ---------------------------------------------------------------------
                                               Max. Height   Min. Depth
                                   Hours       Above Crown    Below Rim
  Node                 Type      Surcharged         Meters       Meters
  ---------------------------------------------------------------------
  WS02006109           JUNCTION        0.24          0.011        1.809
  WS02006228           JUNCTION        0.20          0.009        2.191
  YS02001762           JUNCTION        4.04          0.177        0.973
  YS02001765           JUNCTION        2.87          0.128        0.972
  YS02001767           JUNCTION        1.93          0.185        0.845
  YS02001774           JUNCTION        3.43          0.102        0.948
  YS02001759           JUNCTION        4.55          0.206        1.004
  YS02001641           JUNCTION        3.12          0.188        0.912
  YS02001644           JUNCTION        3.23          0.156        0.764
  YS02001633           JUNCTION        2.33          0.147        0.913
  YS02001649           JUNCTION        4.21          0.138        0.912
  YS02001757           JUNCTION        5.24          0.268        0.942
  YS02163301           JUNCTION        0.76          0.059        0.971
  YS02163601           JUNCTION        4.11          0.245        0.835
  YS02164001           JUNCTION        2.70          0.187        0.913
  
  
  *********************
  Node Flooding Summary
  *********************
  
  Flooding refers to all water that overflows a node, whether it ponds or not.
  --------------------------------------------------------------------------
                                                             Total   Maximum
                                 Maximum   Time of Max       Flood    Ponded
                        Hours       Rate    Occurrence      Volume     Depth
  Node                 Flooded       LPS   days hr:min    10^6 ltr    Meters
  --------------------------------------------------------------------------
  XR-storage              5.28    115.10      0  02:53       1.246     0.000
  
  
  **********************
  Storage Volume Summary
  **********************
  
  --------------------------------------------------------------------------------------------------
                         Average     Avg  Evap Exfil       Maximum     Max    Time of Max    Maximum
                          Volume    Pcnt  Pcnt  Pcnt        Volume    Pcnt     Occurrence    Outflow
  Storage Unit           1000 m3    Full  Loss  Loss       1000 m3    Full    days hr:min        LPS
  --------------------------------------------------------------------------------------------------
  JK-storage               0.002       1     0     0         0.151      52       0  00:00     300.00
  CC-storage               1.010       6     0     0         1.418       9       0  05:04     200.00
  XR-storage               0.907      98     0     0         0.926     100       0  02:32     190.00
  
  
  ***********************
  Outfall Loading Summary
  ***********************
  
  -----------------------------------------------------------
                         Flow       Avg       Max       Total
                         Freq      Flow      Flow      Volume
  Outfall Node           Pcnt       LPS       LPS    10^6 ltr
  -----------------------------------------------------------
  WSC                   99.99    500.91    621.63      12.116
  3                     58.91     80.93    250.55       1.052
  4                      0.00      0.00      0.00       0.000
  5                      0.00      0.00      0.00       0.000
  -----------------------------------------------------------
  System                39.73    581.83    787.01      13.168
  
  
  ********************
  Link Flow Summary
  ********************
  
  -----------------------------------------------------------------------------
                                 Maximum  Time of Max   Maximum    Max/    Max/
                                  |Flow|   Occurrence   |Veloc|    Full    Full
  Link                 Type          LPS  days hr:min     m/sec    Flow   Depth
  -----------------------------------------------------------------------------
  WS02003066WSF200     CONDUIT    407.07     0  03:10      2.56    0.07    0.20
  WS02006287WS02006284 CONDUIT    186.75     0  02:19      1.57    0.09    0.21
  WS02006284WS02006280 CONDUIT    186.84     0  02:19      1.81    0.08    0.19
  WS02006280WS02006229 CONDUIT    186.85     0  02:19      2.91    0.04    0.14
  WS02006229WS02006228 CONDUIT    407.34     0  03:02      0.83    1.35    1.00
  WS02006256WS02006235 CONDUIT    166.25     0  00:01      2.58    1.76    1.00
  WS02006253WS02006251 CONDUIT     36.01     0  02:18      0.47    0.11    0.60
  WS02006252WS02006251 CONDUIT    200.33     0  02:50      1.97    0.74    0.76
  WS02006251WS02006249 CONDUIT    217.47     0  02:53      0.94    0.63    0.60
  WS02006249WS02006248 CONDUIT    216.73     0  02:55      1.02    1.19    0.57
  WS02006248WS02006247 CONDUIT    215.87     0  02:55      0.98    0.47    0.60
  WS02006247WS02006245 CONDUIT    214.82     0  02:59      0.93    1.70    0.63
  WS02006245WS02006243 CONDUIT    214.46     0  03:03      0.95    0.63    0.63
  WS02006243WS02006242 CONDUIT    214.20     0  03:05      0.79    0.46    0.73
  WS02006242WS02006240 CONDUIT    214.19     0  03:06      0.72    0.85    0.79
  WS02006240WS02006239 CONDUIT    214.33     0  03:08      0.76    0.67    0.78
  WS02006239WS02006238 CONDUIT    214.55     0  03:08      0.67    0.69    0.87
  WS02006238WS02006235 CONDUIT    214.68     0  03:09      1.25    0.48    0.90
  WS02006235WS02006234 CONDUIT    315.90     0  03:09      0.94    3.33    0.84
  WS02006234WS02006232 CONDUIT    316.18     0  03:09      1.13    0.64    0.90
  WS02006232WS02006231 CONDUIT    316.43     0  03:10      0.93    0.66    0.85
  WS02006231WS02006230 CONDUIT    316.97     0  03:10      1.28    4.81    0.70
  WS02006230WS02006229 CONDUIT    328.18     0  03:12      0.86    7.30    1.00
  WS02006228WS02006109 CONDUIT    407.35     0  03:02      0.81    1.78    1.00
  WS02006116WS02004401 CONDUIT    408.75     0  03:04      0.73    0.56    0.74
  WS02006115WS02006116 CONDUIT    409.19     0  03:04      0.79    0.53    0.65
  WS02006113WS02006111 CONDUIT    418.06     0  03:02      2.23    0.50    0.40
  WS02006112WS02006115 CONDUIT    409.95     0  03:03      0.63    0.24    0.78
  WS02006111WS02006112 CONDUIT    409.46     0  03:03      1.32    0.19    0.65
  WS02006110WS02006113 CONDUIT    408.62     0  03:02      1.02    0.37    0.74
  WS02006109WS02006110 CONDUIT    408.57     0  03:02      0.83    0.79    0.94
  WS02004411WS02004412 CONDUIT    407.27     0  03:09      0.81    0.58    0.61
  WS02004401WS02004402 CONDUIT    408.47     0  03:05      0.77    0.49    0.77
  WS02004413WS02003067 CONDUIT    407.06     0  03:10      0.96    0.17    0.53
  WS02004412WS02004413 CONDUIT    407.12     0  03:09      0.69    0.27    0.70
  WS02004410WS02004411 CONDUIT    407.51     0  03:08      0.83    0.56    0.60
  WS02004409WS02004410 CONDUIT    407.89     0  03:08      0.87    0.53    0.58
  WS02004407WS02004409 CONDUIT    408.38     0  03:07      1.34    0.14    0.41
  WS02004406WS02004407 CONDUIT    408.39     0  03:07      0.88    0.18    0.57
  WS02004405WS02004406 CONDUIT    408.41     0  03:06      0.66    0.81    0.88
  WS02004404WS02004405 CONDUIT    408.39     0  03:06      0.84    4.00    0.87
  WS02004403WS02004404 CONDUIT    408.26     0  03:06      0.74    0.30    0.84
  WS02004402WS02004403 CONDUIT    408.33     0  03:06      0.75    0.59    0.79
  WS02004139WS02001211 CONDUIT    190.59     0  02:53      0.53    0.24    0.45
  WS02004138WS02004139 CONDUIT    190.01     0  00:20      2.39    0.04    0.33
  WS02003067WS02003066 CONDUIT    407.07     0  03:10      1.03    0.13    0.38
  WS02001213WS02003059 CONDUIT    199.21     0  02:51      0.47    0.33    0.64
  WS02001212WS02001213 CONDUIT    198.53     0  02:52      1.03    0.31    0.33
  WS02001211WS02001212 CONDUIT    198.25     0  02:53      0.54    0.15    0.49
  WS02003072WS02003073 CONDUIT    619.83     0  03:14      1.49    1.34    0.39
  WS02003069WS02003072 CONDUIT    619.84     0  03:13      1.42    0.30    0.41
  WS02003060WS02003069 CONDUIT    619.53     0  03:12      1.69    0.24    0.36
  WS02003059WS02003060 CONDUIT    200.16     0  02:51      0.67    0.13    0.54
  HS02004901HS02004770 CONDUIT      9.31     0  02:15      0.04    0.04    0.31
  HS02004876HS02004881 CONDUIT     31.29     0  02:19      0.52    0.33    0.09
  HS02004870HS02004876 CONDUIT     24.83     0  02:19      0.37    0.02    0.10
  HS02004842HS02004848 CONDUIT      4.99     0  02:31      0.03    0.00    0.27
  HS02004837HS02004842 CONDUIT      5.16     0  02:31      0.41    0.00    0.29
  HS02004830HS02004837 CONDUIT     22.23     0  02:18      0.43    0.02    0.07
  HS02004824HS02004830 CONDUIT     22.37     0  02:19      0.47    0.03    0.07
  HS02004817HS02004824 CONDUIT     35.37     0  02:22      0.17    0.02    0.39
  HS02004770HS02004777 CONDUIT     47.58     0  02:14      0.21    0.09    0.32
  HS02004799HS02004480 CONDUIT    117.65     0  02:17      0.56    0.15    0.30
  HS02004792HS02004799 CONDUIT    107.55     0  02:16      0.65    0.07    0.24
  HS02004788HS02004792 CONDUIT     62.59     0  02:18      0.80    0.04    0.11
  HS02004785HS02004788 CONDUIT     47.07     0  02:18      0.49    0.35    0.14
  HS02004777HS02004785 CONDUIT     47.00     0  02:16      0.26    0.06    0.26
  HS02004480HS02004478 CONDUIT    138.95     0  02:18      0.92    0.59    0.22
  HS02004479HS02004480 CONDUIT     21.74     0  02:20      0.16    0.02    0.29
  HS02004862HS02004870 CONDUIT     18.05     0  02:20      0.45    0.02    0.06
  HS02004848HS02004852 CONDUIT      7.16     0  02:18      0.30    0.01    0.03
  HS02004856HS02004862 CONDUIT     12.17     0  02:19      0.33    0.01    0.05
  HS02004852HS02004856 CONDUIT      7.13     0  02:20      0.11    0.01    0.09
  HS02004802HS02004478 CONDUIT     48.91     0  02:22      0.29    0.04    0.24
  HS02004478WS02006287 CONDUIT    186.77     0  02:19      1.26    0.05    0.16
  HS02004817HS02004807 CONDUIT     36.40     0  02:23      0.10    0.02    0.50
  HS02004807HS02004802 CONDUIT     48.62     0  02:21      0.24    0.09    0.29
  YS02001759YS02001757 CONDUIT    181.16     0  03:24      0.23    0.13    1.00
  YS02001762YS02001759 CONDUIT    117.79     0  03:31      0.17    0.14    1.00
  YS02001765YS02001762 CONDUIT    125.15     0  03:31      0.23    0.12    1.00
  YS02001770YS02001767 CONDUIT    140.42     0  03:34      0.32    0.56    1.00
  YS02001774YS02001770 CONDUIT     96.80     0  03:33      0.14    0.06    1.00
  YS02001779YS02001774 CONDUIT     84.78     0  03:34      0.12    0.04    0.92
  YS02001649YS02001757 CONDUIT    280.16     0  03:18      0.36    0.17    1.00
  YS02001767YS02001765 CONDUIT     99.67     0  03:31      0.26    0.13    1.00
  YS02006561YS02001783 CONDUIT    283.73     0  02:55      1.74    0.15    0.36
  YS02001783YS02001784 CONDUIT    283.73     0  02:55      1.19    0.39    0.48
  YS02001784YS02001785 CONDUIT    284.78     0  02:55      1.26    0.66    0.46
  YS02001788YS02001790 CONDUIT    284.90     0  02:56      1.83    0.21    0.35
  YS02001790YS02001791 CONDUIT    285.05     0  02:56      2.11    0.31    0.31
  YS02001791YS02001793 CONDUIT    285.05     0  02:56      3.83    0.12    0.21
  YS02001910YS02001907 CONDUIT     88.11     0  03:01      0.49    0.05    0.71
  YS02001786YS02001788 CONDUIT    284.83     0  02:56      1.70    0.55    0.37
  YS02001915YS02001910 CONDUIT     87.97     0  03:00      0.44    0.04    0.50
  YS02001918YS02001915 CONDUIT     29.84     0  03:03      0.44    0.02    0.24
  YS02001923YS02001920 CONDUIT     27.00     0  03:02      0.42    0.01    0.14
  YS02001926YS02001923 CONDUIT     26.97     0  03:01      0.47    0.04    0.13
  YS02001929YS02001926 CONDUIT     26.97     0  03:01      0.49    0.01    0.12
  YS02001920YS02001918 CONDUIT     29.86     0  03:02      0.44    0.03    0.14
  YS02001629YS02163301 CONDUIT     99.63     0  03:37      0.13    0.12    0.99
  YS02001619YS02001622 CONDUIT     89.81     0  03:36      0.64    0.13    0.61
  YS02001622YS02001625 CONDUIT     92.78     0  03:36      0.24    0.05    0.78
  YS02001625YS02001629 CONDUIT    117.30     0  03:33      0.24    0.06    0.76
  YS02163301YS02001633 CONDUIT     83.11     0  03:45      0.11    0.08    1.00
  YS02163601YS02164001 CONDUIT    157.10     0  03:31      0.20    0.14    1.00
  YS02164001YS02001641 CONDUIT    148.98     0  03:37      0.19    0.20    1.00
  YS02001641YS02001644 CONDUIT    146.36     0  03:38      0.19    0.47    1.00
  YS02001647YS02001649 CONDUIT    231.11     0  03:35      0.31    0.12    0.97
  YS02006553YS02006556 CONDUIT    193.41     0  03:02      0.29    0.17    0.80
  YS02006556YS02006558 CONDUIT    193.60     0  03:02      0.28    0.15    0.82
  YSB6556YSB1171       CONDUIT     11.75     0  02:19      0.05    0.01    0.56
  YS02001907YS02006553 CONDUIT    193.30     0  02:57      0.24    0.23    0.90
  YS02006558YS02006561 CONDUIT    283.73     0  02:55      2.24    0.63    0.46
  YS02001633YS02163601 CONDUIT    150.98     0  03:31      0.19    0.16    1.00
  YS02001644YS02001647 CONDUIT    194.39     0  03:02      0.27    0.11    0.97
  YS02001745YS02001748 CONDUIT     64.65     0  03:01      1.37    0.02    0.23
  YS02001748YS02001751 CONDUIT    187.82     0  03:27      1.06    0.09    0.55
  YS02001751YS02001754 CONDUIT     79.87     0  02:33      0.95    0.04    0.77
  YS02001754YS02001757 CONDUIT    158.72     0  03:29      0.33    0.06    0.97
  YS02001882YS02001884 CONDUIT      3.62     0  02:08      0.06    0.00    0.44
  YS02001884YS02001887 CONDUIT     10.60     0  02:08      0.06    0.01    0.53
  YS02001890YS02001895 CONDUIT    107.14     0  02:46      0.27    0.05    0.50
  YS02001895YS02001898 CONDUIT    106.98     0  02:49      0.47    0.19    0.37
  YS02001898YS02001901 CONDUIT    106.85     0  02:48      0.32    0.07    0.45
  YS02001901YS02001904 CONDUIT    106.52     0  02:50      0.27    0.17    0.50
  YS02001904YS02001907 CONDUIT    106.55     0  02:50      0.20    0.04    0.66
  YS02001887YS02001890 CONDUIT    107.48     0  02:46      0.23    0.18    0.59
  YS02001652YS02001649 CONDUIT    172.50     0  03:28      0.32    0.09    0.97
  YS02001655YS02001652 CONDUIT    105.86     0  03:19      1.03    0.05    0.80
  YS02001658YS02001655 CONDUIT    173.71     0  03:29      1.22    0.07    0.53
  YS02001661YS02001658 CONDUIT     76.48     0  02:45      1.41    0.03    0.23
  YS02001664YS02001661 CONDUIT     76.48     0  02:45      1.06    0.02    0.15
  YSB1154YSB6556       CONDUIT     11.58     0  02:18      0.19    0.02    0.45
  YSB1174YSB1171       CONDUIT     10.86     0  02:11      0.05    0.02    0.57
  YSB1171HS02004479    CONDUIT     21.51     0  02:19      0.54    0.01    0.44
  HS02004881HS02006253 CONDUIT     35.06     0  02:18      1.60    0.01    0.08
  YS02001793JiankangQianchi CONDUIT    285.05     0  02:56     12.82    0.02    0.50
  YS02001757CaochengTiaoxuchi CONDUIT    464.46     0  03:03      0.92    0.20    0.75
  WSF200WS02003060     CONDUIT    407.05     0  03:10      1.58    0.09    0.28
  1                    CONDUIT    621.63     0  03:14      2.92    0.22    0.32
  2                    CONDUIT      0.00     0  00:00      0.00    0.00    0.00
  3                    CONDUIT    250.55     0  00:00      8.26    0.40    0.46
  4                    CONDUIT      0.00     0  00:00      0.00    0.00    0.00
  CC-Pump-1            PUMP       200.00     0  02:50              1.00
  CC-Pump-2            PUMP         0.00     0  00:00              0.00
  JK-Pump-1            PUMP       300.00     0  00:00              1.00
  JK-Pump-2            PUMP         0.00     0  00:00              0.00
  XR-Pump-1            PUMP        95.00     0  00:00              1.00
  XR-Pump-2            PUMP        95.00     0  01:50              1.00
  XR-Pump-3            PUMP        95.00     0  00:20              1.00
  XR-Pump-4            PUMP        95.00     0  01:50              1.00
  
  
  ***************************
  Flow Classification Summary
  ***************************
  
  -------------------------------------------------------------------------------------
                      Adjusted    ---------- Fraction of Time in Flow Class ---------- 
                       /Actual         Up    Down  Sub   Sup   Up    Down  Norm  Inlet 
  Conduit               Length    Dry  Dry   Dry   Crit  Crit  Crit  Crit  Ltd   Ctrl  
  -------------------------------------------------------------------------------------
  WS02003066WSF200        1.00   0.06  0.00  0.00  0.00  0.94  0.00  0.00  0.76  0.00
  WS02006287WS02006284    1.00   0.04  0.02  0.00  0.72  0.22  0.00  0.00  0.78  0.00
  WS02006284WS02006280    1.00   0.05  0.00  0.00  0.00  0.00  0.00  0.95  0.00  0.00
  WS02006280WS02006229    1.00   0.05  0.00  0.00  0.00  0.00  0.00  0.95  0.00  0.00
  WS02006229WS02006228    1.00   0.00  0.00  0.00  0.99  0.00  0.00  0.01  0.00  0.00
  WS02006256WS02006235    1.00   0.00  0.00  0.00  1.00  0.00  0.00  0.00  0.00  0.00
  WS02006253WS02006251    1.00   0.03  0.01  0.00  0.95  0.00  0.00  0.00  0.00  0.00
  WS02006252WS02006251    1.00   0.13  0.00  0.00  0.00  0.00  0.87  0.00  0.00  0.00
  WS02006251WS02006249    1.00   0.00  0.00  0.00  1.00  0.00  0.00  0.00  0.32  0.00
  WS02006249WS02006248    1.00   0.00  0.02  0.00  0.86  0.00  0.12  0.00  0.00  0.00
  WS02006248WS02006247    1.00   0.02  0.00  0.00  0.97  0.00  0.00  0.00  0.22  0.00
  WS02006247WS02006245    1.00   0.02  0.00  0.00  0.98  0.00  0.00  0.00  0.00  0.00
  WS02006245WS02006243    1.00   0.01  0.00  0.00  0.94  0.00  0.00  0.04  0.01  0.00
  WS02006243WS02006242    1.00   0.01  0.00  0.00  0.99  0.00  0.00  0.00  0.27  0.00
  WS02006242WS02006240    1.00   0.00  0.00  0.00  1.00  0.00  0.00  0.00  0.00  0.00
  WS02006240WS02006239    1.00   0.00  0.00  0.00  0.95  0.00  0.00  0.05  0.01  0.00
  WS02006239WS02006238    1.00   0.00  0.00  0.00  1.00  0.00  0.00  0.00  0.01  0.00
  WS02006238WS02006235    1.00   0.00  0.00  0.00  1.00  0.00  0.00  0.00  0.00  0.00
  WS02006235WS02006234    1.00   0.00  0.00  0.00  0.95  0.00  0.05  0.00  0.00  0.00
  WS02006234WS02006232    1.00   0.00  0.00  0.00  1.00  0.00  0.00  0.00  0.17  0.00
  WS02006232WS02006231    1.00   0.00  0.00  0.00  0.99  0.00  0.00  0.00  0.00  0.00
  WS02006231WS02006230    1.00   0.00  0.00  0.00  0.29  0.00  0.70  0.00  0.00  0.00
  WS02006230WS02006229    1.00   0.00  0.00  0.00  0.98  0.00  0.00  0.02  0.01  0.00
  WS02006228WS02006109    1.00   0.00  0.00  0.00  1.00  0.00  0.00  0.00  0.00  0.00
  WS02006116WS02004401    1.00   0.03  0.00  0.00  0.97  0.00  0.00  0.00  0.00  0.00
  WS02006115WS02006116    1.00   0.03  0.00  0.00  0.97  0.00  0.00  0.01  0.00  0.00
  WS02006113WS02006111    1.00   0.02  0.00  0.00  0.00  0.98  0.00  0.00  0.12  0.00
  WS02006112WS02006115    1.00   0.02  0.00  0.00  0.97  0.00  0.00  0.00  0.00  0.00
  WS02006111WS02006112    1.00   0.02  0.00  0.00  0.97  0.00  0.00  0.00  0.98  0.00
  WS02006110WS02006113    1.00   0.01  0.01  0.00  0.98  0.00  0.00  0.00  0.00  0.00
  WS02006109WS02006110    1.00   0.00  0.01  0.00  0.98  0.00  0.01  0.00  0.00  0.00
  WS02004411WS02004412    1.00   0.04  0.00  0.00  0.96  0.00  0.00  0.00  0.00  0.00
  WS02004401WS02004402    1.00   0.03  0.00  0.00  0.97  0.00  0.00  0.00  0.00  0.00
  WS02004413WS02003067    1.00   0.04  0.02  0.00  0.00  0.00  0.94  0.00  0.00  0.00
  WS02004412WS02004413    1.00   0.04  0.00  0.00  0.96  0.00  0.00  0.00  0.03  0.00
  WS02004410WS02004411    1.00   0.04  0.00  0.00  0.96  0.00  0.00  0.00  0.04  0.00
  WS02004409WS02004410    1.00   0.04  0.00  0.00  0.96  0.00  0.00  0.00  0.04  0.00
  WS02004407WS02004409    1.00   0.04  0.00  0.00  0.96  0.00  0.00  0.00  0.89  0.00
  WS02004406WS02004407    1.00   0.00  0.04  0.00  0.96  0.00  0.00  0.00  0.00  0.00
  WS02004405WS02004406    1.00   0.00  0.00  0.00  1.00  0.00  0.00  0.00  0.00  0.00
  WS02004404WS02004405    1.00   0.00  0.00  0.00  1.00  0.00  0.00  0.00  0.00  0.00
  WS02004403WS02004404    1.00   0.00  0.03  0.00  0.97  0.00  0.00  0.00  0.01  0.00
  WS02004402WS02004403    1.00   0.03  0.00  0.00  0.97  0.00  0.00  0.00  0.00  0.00
  WS02004139WS02001211    1.00   0.00  0.00  0.00  0.99  0.00  0.01  0.00  0.00  0.00
  WS02004138WS02004139    1.00   0.00  0.00  0.00  0.99  0.01  0.00  0.00  1.00  0.00
  WS02003067WS02003066    1.00   0.06  0.00  0.00  0.94  0.00  0.00  0.00  0.00  0.00
  WS02001213WS02003059    1.00   0.00  0.01  0.00  0.99  0.00  0.00  0.00  0.00  0.00
  WS02001212WS02001213    1.00   0.01  0.00  0.00  0.89  0.00  0.10  0.00  0.00  0.00
  WS02001211WS02001212    1.00   0.00  0.01  0.00  0.99  0.00  0.00  0.00  0.00  0.00
  WS02003072WS02003073    1.00   0.00  0.00  0.00  0.00  0.00  0.00  1.00  0.00  0.00
  WS02003069WS02003072    1.00   0.00  0.00  0.00  0.99  0.01  0.00  0.00  0.29  0.00
  WS02003060WS02003069    1.00   0.00  0.00  0.00  0.99  0.01  0.00  0.00  0.22  0.00
  WS02003059WS02003060    1.00   0.00  0.00  0.00  1.00  0.00  0.00  0.00  0.02  0.00
  HS02004901HS02004770    1.00   0.05  0.00  0.00  0.95  0.00  0.00  0.00  0.03  0.00
  HS02004876HS02004881    1.00   0.02  0.00  0.00  0.98  0.00  0.00  0.00  0.00  0.00
  HS02004870HS02004876    1.00   0.01  0.00  0.00  0.99  0.00  0.00  0.00  0.95  0.00
  HS02004842HS02004848    1.00   0.00  0.05  0.00  0.95  0.00  0.00  0.00  0.69  0.00
  HS02004837HS02004842    1.00   0.00  0.00  0.00  0.99  0.01  0.00  0.00  0.11  0.00
  HS02004830HS02004837    1.00   0.00  0.00  0.00  1.00  0.00  0.00  0.00  0.99  0.00
  HS02004824HS02004830    1.00   0.00  0.00  0.00  1.00  0.00  0.00  0.00  0.00  0.00
  HS02004817HS02004824    1.00   0.00  0.00  0.00  1.00  0.00  0.00  0.00  1.00  0.00
  HS02004770HS02004777    1.00   0.00  0.05  0.00  0.95  0.00  0.00  0.00  0.07  0.00
  HS02004799HS02004480    1.00   0.00  0.03  0.00  0.94  0.00  0.03  0.00  0.00  0.00
  HS02004792HS02004799    1.00   0.00  0.00  0.00  0.99  0.01  0.00  0.00  0.98  0.00
  HS02004788HS02004792    1.00   0.00  0.00  0.00  0.99  0.01  0.00  0.00  0.98  0.00
  HS02004785HS02004788    1.00   0.00  0.00  0.00  1.00  0.00  0.00  0.00  0.00  0.00
  HS02004777HS02004785    1.00   0.00  0.00  0.00  1.00  0.00  0.00  0.00  0.21  0.00
  HS02004480HS02004478    1.00   0.05  0.00  0.00  0.76  0.00  0.00  0.19  0.00  0.00
  HS02004479HS02004480    1.00   0.03  0.00  0.00  0.97  0.00  0.00  0.00  0.16  0.00
  HS02004862HS02004870    1.00   0.00  0.00  0.00  1.00  0.00  0.00  0.00  0.06  0.00
  HS02004848HS02004852    1.00   0.05  0.00  0.00  0.95  0.00  0.00  0.00  0.71  0.00
  HS02004856HS02004862    1.00   0.00  0.07  0.00  0.93  0.00  0.00  0.00  0.74  0.00
  HS02004852HS02004856    1.00   0.05  0.01  0.00  0.95  0.00  0.00  0.00  0.83  0.00
  HS02004802HS02004478    1.00   0.05  0.01  0.00  0.95  0.00  0.00  0.00  0.01  0.00
  HS02004478WS02006287    1.00   0.06  0.00  0.00  0.90  0.04  0.00  0.00  0.79  0.00
  HS02004817HS02004807    1.00   0.00  0.05  0.00  0.95  0.00  0.00  0.00  0.00  0.00
  HS02004807HS02004802    1.00   0.05  0.00  0.00  0.95  0.00  0.00  0.00  0.01  0.00
  YS02001759YS02001757    1.00   0.00  0.00  0.00  1.00  0.00  0.00  0.00  0.17  0.00
  YS02001762YS02001759    1.00   0.00  0.00  0.00  1.00  0.00  0.00  0.00  0.05  0.00
  YS02001765YS02001762    1.00   0.00  0.00  0.00  1.00  0.00  0.00  0.00  0.22  0.00
  YS02001770YS02001767    1.00   0.00  0.00  0.00  1.00  0.00  0.00  0.00  0.00  0.00
  YS02001774YS02001770    1.00   0.00  0.05  0.00  0.94  0.00  0.00  0.00  0.07  0.00
  YS02001779YS02001774    1.00   0.00  0.00  0.00  1.00  0.00  0.00  0.00  0.27  0.00
  YS02001649YS02001757    1.00   0.00  0.00  0.00  1.00  0.00  0.00  0.00  0.19  0.00
  YS02001767YS02001765    1.00   0.00  0.00  0.00  1.00  0.00  0.00  0.00  0.01  0.00
  YS02006561YS02001783    1.00   0.07  0.00  0.00  0.00  0.93  0.00  0.00  0.73  0.00
  YS02001783YS02001784    1.00   0.00  0.07  0.00  0.93  0.00  0.00  0.00  0.00  0.00
  YS02001784YS02001785    1.00   0.00  0.00  0.00  1.00  0.00  0.00  0.00  0.25  0.00
  YS02001788YS02001790    1.00   0.00  0.00  0.00  0.07  0.93  0.00  0.00  0.80  0.00
  YS02001790YS02001791    1.00   0.00  0.00  0.00  0.02  0.98  0.00  0.00  0.51  0.00
  YS02001791YS02001793    1.00   0.00  0.00  0.00  0.00  1.00  0.00  0.00  0.00  0.00
  YS02001910YS02001907    1.00   0.00  0.00  0.00  0.97  0.00  0.00  0.03  0.13  0.00
  YS02001786YS02001788    1.00   0.00  0.00  0.00  0.08  0.92  0.00  0.00  0.00  0.00
  YS02001915YS02001910    1.00   0.00  0.00  0.00  0.99  0.01  0.00  0.00  0.24  0.00
  YS02001918YS02001915    1.00   0.00  0.01  0.00  0.98  0.02  0.00  0.00  0.81  0.00
  YS02001923YS02001920    1.00   0.00  0.00  0.00  1.00  0.00  0.00  0.00  1.00  0.00
  YS02001926YS02001923    1.00   0.00  0.04  0.00  0.00  0.00  0.96  0.00  0.00  0.00
  YS02001929YS02001926    1.00   0.00  0.05  0.00  0.95  0.00  0.00  0.00  0.87  0.00
  YS02001920YS02001918    1.00   0.00  0.01  0.00  0.99  0.00  0.00  0.00  0.00  0.00
  YS02001629YS02163301    1.00   0.06  0.00  0.00  0.93  0.00  0.00  0.00  0.00  0.00
  YS02001619YS02001622    1.00   0.05  0.00  0.00  0.95  0.00  0.00  0.00  0.00  0.00
  YS02001622YS02001625    1.00   0.05  0.00  0.00  0.95  0.00  0.00  0.00  0.13  0.00
  YS02001625YS02001629    1.00   0.05  0.03  0.00  0.91  0.00  0.01  0.00  0.00  0.00
  YS02163301YS02001633    1.00   0.00  0.06  0.00  0.94  0.00  0.00  0.00  0.00  0.00
  YS02163601YS02164001    1.00   0.00  0.04  0.00  0.96  0.00  0.00  0.00  0.00  0.00
  YS02164001YS02001641    1.00   0.01  0.03  0.00  0.96  0.00  0.00  0.00  0.07  0.00
  YS02001641YS02001644    1.00   0.00  0.01  0.00  0.99  0.00  0.00  0.00  0.00  0.00
  YS02001647YS02001649    1.00   0.00  0.07  0.00  0.93  0.00  0.00  0.00  0.01  0.00
  YS02006553YS02006556    1.00   0.02  0.00  0.00  0.98  0.00  0.00  0.00  0.03  0.00
  YS02006556YS02006558    1.00   0.00  0.00  0.00  1.00  0.00  0.00  0.00  0.00  0.00
  YSB6556YSB1171          1.00   0.03  0.02  0.00  0.95  0.00  0.00  0.00  0.00  0.00
  YS02001907YS02006553    1.00   0.00  0.02  0.00  0.97  0.00  0.00  0.00  0.00  0.00
  YS02006558YS02006561    1.00   0.07  0.00  0.00  0.00  0.93  0.00  0.00  0.72  0.00
  YS02001633YS02163601    1.00   0.00  0.01  0.00  0.99  0.00  0.00  0.00  0.20  0.00
  YS02001644YS02001647    1.00   0.00  0.07  0.00  0.93  0.00  0.00  0.00  0.00  0.00
  YS02001745YS02001748    1.00   0.00  0.00  0.00  0.86  0.02  0.00  0.12  0.67  0.00
  YS02001748YS02001751    1.00   0.00  0.00  0.00  0.98  0.02  0.00  0.00  0.25  0.00
  YS02001751YS02001754    1.00   0.00  0.00  0.00  0.92  0.00  0.00  0.08  0.02  0.00
  YS02001754YS02001757    1.00   0.00  0.00  0.00  0.99  0.01  0.00  0.00  0.26  0.00
  YS02001882YS02001884    1.00   0.06  0.00  0.00  0.94  0.00  0.00  0.00  0.00  0.00
  YS02001884YS02001887    1.00   0.03  0.01  0.00  0.96  0.00  0.00  0.00  0.00  0.00
  YS02001890YS02001895    1.00   0.00  0.06  0.00  0.93  0.00  0.00  0.00  0.00  0.00
  YS02001895YS02001898    1.00   0.07  0.00  0.00  0.93  0.00  0.01  0.00  0.00  0.00
  YS02001898YS02001901    1.00   0.06  0.00  0.00  0.93  0.00  0.00  0.00  0.02  0.00
  YS02001901YS02001904    1.00   0.06  0.00  0.00  0.94  0.00  0.00  0.00  0.00  0.00
  YS02001904YS02001907    1.00   0.00  0.06  0.00  0.94  0.00  0.00  0.00  0.00  0.00
  YS02001887YS02001890    1.00   0.00  0.00  0.00  0.97  0.00  0.03  0.00  0.00  0.00
  YS02001652YS02001649    1.00   0.00  0.00  0.00  1.00  0.00  0.00  0.00  0.26  0.00
  YS02001655YS02001652    1.00   0.00  0.00  0.00  0.92  0.00  0.00  0.08  0.02  0.00
  YS02001658YS02001655    1.00   0.00  0.06  0.00  0.92  0.02  0.00  0.00  0.12  0.00
  YS02001661YS02001658    1.00   0.06  0.00  0.00  0.86  0.09  0.00  0.00  0.73  0.00
  YS02001664YS02001661    1.00   0.05  0.00  0.00  0.81  0.14  0.00  0.00  0.86  0.00
  YSB1154YSB6556          1.00   0.05  0.00  0.00  0.95  0.00  0.00  0.00  0.02  0.00
  YSB1174YSB1171          1.00   0.03  0.01  0.00  0.96  0.00  0.00  0.00  0.00  0.00
  YSB1171HS02004479       1.00   0.03  0.00  0.00  0.97  0.00  0.00  0.00  0.13  0.00
  HS02004881HS02006253    1.00   0.03  0.00  0.00  0.84  0.00  0.00  0.12  0.64  0.00
  YS02001793JiankangQianchi    1.00   0.00  0.00  0.00  0.02  0.97  0.00  0.00  0.02  0.00
  YS02001757CaochengTiaoxuchi    1.00   0.00  0.09  0.00  0.91  0.00  0.00  0.00  0.00  0.00
  WSF200WS02003060        1.00   0.00  0.06  0.00  0.82  0.12  0.00  0.00  0.08  0.00
  1                       1.00   0.00  0.00  0.00  0.00  1.00  0.00  0.00  0.57  0.00
  2                       1.00   1.00  0.00  0.00  0.00  0.00  0.00  0.00  0.00  0.00
  3                       1.00   0.41  0.00  0.00  0.00  0.59  0.00  0.00  0.28  0.00
  4                       1.00   1.00  0.00  0.00  0.00  0.00  0.00  0.00  0.00  0.00
  
  
  *************************
  Conduit Surcharge Summary
  *************************
  
  ----------------------------------------------------------------------------
                                                           Hours        Hours 
                         --------- Hours Full --------   Above Full   Capacity
  Conduit                Both Ends  Upstream  Dnstream   Normal Flow   Limited
  ----------------------------------------------------------------------------
  WS02006229WS02006228        0.20      0.28      0.20      3.75         0.20
  WS02006256WS02006235        5.67      5.67      6.31      3.12         0.01
  WS02006249WS02006248        0.01      0.01      0.01      5.01         0.01
  WS02006247WS02006245        0.01      0.01      0.01      5.04         0.01
  WS02006235WS02006234        0.01      0.01      0.01      5.69         0.01
  WS02006231WS02006230        0.01      0.01      0.01      5.69         0.01
  WS02006230WS02006229        0.72      2.48      0.72      5.78         0.72
  WS02006228WS02006109        0.24      0.46      0.24      5.54         0.24
  WS02006111WS02006112        0.01      0.01      4.52      0.01         0.01
  WS02006110WS02006113        0.01      0.01      0.35      0.01         0.01
  WS02006109WS02006110        0.01      0.01      0.46      0.01         0.01
  WS02004404WS02004405        0.01      0.01      0.01      5.59         0.01
  WS02003072WS02003073        0.01      0.01      0.01      5.32         0.01
  YS02001759YS02001757        4.55      4.55      5.24      0.01         0.01
  YS02001762YS02001759        4.04      4.04      4.55      0.01         0.01
  YS02001765YS02001762        2.87      2.87      4.04      0.01         0.01
  YS02001770YS02001767        1.71      1.71      1.93      0.01         0.08
  YS02001774YS02001770        0.01      0.01      3.43      0.01         0.01
  YS02001779YS02001774        0.01      0.01      3.43      0.01         0.01
  YS02001649YS02001757        4.21      4.21      5.24      0.01         0.01
  YS02001767YS02001765        1.92      1.92      2.87      0.01         0.01
  YS02001629YS02163301        0.01      0.01      0.75      0.01         0.01
  YS02163301YS02001633        0.75      0.75      2.84      0.01         0.01
  YS02163601YS02164001        2.70      2.70      4.11      0.01         0.01
  YS02164001YS02001641        2.70      2.70      3.12      0.01         0.01
  YS02001641YS02001644        3.11      3.12      3.23      0.01         0.24
  YS02001647YS02001649        0.01      0.01      4.21      0.01         0.01
  YS02001633YS02163601        2.33      2.33      4.11      0.01         0.01
  YS02001644YS02001647        0.01      0.01      3.23      0.01         0.01
  YS02001754YS02001757        0.01      0.01      5.24      0.01         0.01
  YS02001652YS02001649        0.01      0.01      4.21      0.01         0.01
  YS02001793JiankangQianchi        0.01      0.01      0.09      0.01         0.01
  YS02001757CaochengTiaoxuchi        0.01      0.01      5.24      0.01         0.01
  
  
  ***************
  Pumping Summary
  ***************
  
  ---------------------------------------------------------------------------------------------------------
                                                  Min       Avg       Max     Total     Power    % Time Off
                        Percent   Number of      Flow      Flow      Flow    Volume     Usage    Pump Curve
  Pump                 Utilized   Start-Ups       LPS       LPS       LPS  10^6 ltr     Kw-hr    Low   High
  ---------------------------------------------------------------------------------------------------------
  CC-Pump-1               65.96           1      0.00    197.06    200.00     3.660     11.67    0.0   10.8
  CC-Pump-2                0.00           0      0.00      0.00      0.00     0.000      0.00    0.0    0.0
  JK-Pump-1              100.00           1      0.00    133.83    300.00     2.979     57.48    0.0    0.0
  JK-Pump-2                0.00           0      0.00      0.00      0.00     0.000      0.00    0.0    0.0
  XR-Pump-1               34.03           2      0.00     83.68     95.00     0.827      6.96    0.0    0.0
  XR-Pump-2               72.34           2      0.00     93.02     95.00     1.852      8.83    0.0    0.0
  XR-Pump-3               31.90           2      0.00     79.55     95.00     0.741      6.04    0.0    0.0
  XR-Pump-4               72.34           2      0.00     93.02     95.00     1.852      8.83    0.0    0.0
  

  Analysis begun on:  Thu Jan  6 02:20:34 2022
  Analysis ended on:  Thu Jan  6 02:20:37 2022
  Total elapsed time: 00:00:03