
  EPA STORM WATER MANAGEMENT MODEL - VERSION 5.1 (Build 5.3.0.dev0)
  --------------------------------------------------------------

  WARNING 04: minimum elevation drop used for Conduit WS02004404WS02004405
  WARNING 03: negative offset ignored for Link YS02001904YS02001907
  
  *********************************************************
  NOTE: The summary statistics displayed in this report are
  based on results found at every computational time step,  
  not just on results from each reporting time step.
  *********************************************************
  
  ****************
  Analysis Options
  ****************
  Flow Units ............... LPS
  Process Models:
    Rainfall/Runoff ........ YES
    RDII ................... NO
    Snowmelt ............... NO
    Groundwater ............ NO
    Flow Routing ........... YES
    Ponding Allowed ........ NO
    Water Quality .......... NO
  Infiltration Method ...... HORTON
  Flow Routing Method ...... DYNWAVE
  Surcharge Method ......... EXTRAN
  Starting Date ............ 08/28/2015 08:00:00
  Ending Date .............. 08/28/2015 15:50:00
  Antecedent Dry Days ...... 8.0
  Report Time Step ......... 00:01:00
  Wet Time Step ............ 00:01:00
  Dry Time Step ............ 00:01:00
  Routing Time Step ........ 5.00 sec
  Variable Time Step ....... YES
  Maximum Trials ........... 8
  Number of Threads ........ 4
  Head Tolerance ........... 0.001500 m
  
  
  **************************        Volume         Depth
  Runoff Quantity Continuity     hectare-m            mm
  **************************     ---------       -------
  Total Precipitation ......         2.592         5.674
  Evaporation Loss .........         0.000         0.000
  Infiltration Loss ........         0.650         1.423
  Surface Runoff ...........         1.068         2.339
  Final Storage ............         0.874         1.914
  Continuity Error (%) .....        -0.018
  
  
  **************************        Volume        Volume
  Flow Routing Continuity        hectare-m      10^6 ltr
  **************************     ---------     ---------
  Dry Weather Inflow .......         0.616         6.165
  Wet Weather Inflow .......         1.067        10.674
  Groundwater Inflow .......         0.000         0.000
  RDII Inflow ..............         0.000         0.000
  External Inflow ..........         0.102         1.024
  External Outflow .........         1.347        13.471
  Flooding Loss ............         0.136         1.361
  Evaporation Loss .........         0.000         0.000
  Exfiltration Loss ........         0.000         0.000
  Initial Stored Volume ....         0.076         0.761
  Final Stored Volume ......         0.385         3.846
  Continuity Error (%) .....        -0.291
  
  
  *************************
  Highest Continuity Errors
  *************************
  Node HS02004842 (29.33%)
  Node YS02001884 (23.62%)
  Node YS02001774 (10.30%)
  Node YSB1171 (7.30%)
  Node HS02004901 (5.79%)
  
  
  ***************************
  Time-Step Critical Elements
  ***************************
  Link WS02006252WS02006251 (83.55%)
  Link 3 (10.45%)
  Link WS02006280WS02006229 (2.18%)
  
  
  ********************************
  Highest Flow Instability Indexes
  ********************************
  Link WS02006113WS02006111 (44)
  Link WS02006111WS02006112 (33)
  Link YS02001629YS02163301 (5)
  Link YS02001644YS02001647 (5)
  Link YS02163601YS02164001 (5)
  
  
  *************************
  Routing Time Step Summary
  *************************
  Minimum Time Step           :     0.50 sec
  Average Time Step           :     0.89 sec
  Maximum Time Step           :     5.00 sec
  Percent in Steady State     :    -0.00
  Average Iterations per Step :     2.50
  Percent Not Converging      :     6.28
  
  
  ***************************
  Subcatchment Runoff Summary
  ***************************
  
  ------------------------------------------------------------------------------------------------------------------------------
                            Total      Total      Total      Total     Imperv       Perv      Total       Total     Peak  Runoff
                           Precip      Runon       Evap      Infil     Runoff     Runoff     Runoff      Runoff   Runoff   Coeff
  Subcatchment                 mm         mm         mm         mm         mm         mm         mm    10^6 ltr      LPS
  ------------------------------------------------------------------------------------------------------------------------------
  sub0                       5.67       0.00       0.00       0.40       4.01       0.00       4.01        0.00     1.40   0.707
  sub1                       5.67       0.00       0.00       0.62       3.80       0.00       3.80        0.03     7.20   0.669
  sub2                       5.67       0.00       0.00       2.10       2.67       0.00       2.67        0.02     6.34   0.470
  sub3                       5.67       0.00       0.00       2.10       2.64       0.00       2.64        0.06    12.98   0.464
  sub4                       5.67       0.00       0.00       0.62       3.66       0.00       3.66        0.08    14.49   0.645
  sub5                       5.67       0.00       0.00       0.40       3.97       0.00       3.97        0.04    12.81   0.699
  sub7                       5.67       0.00       0.00       0.51       3.91       0.00       3.91        0.01     4.56   0.689
  sub8                       5.67       0.00       0.00       0.51       3.90       0.00       3.90        0.02     8.01   0.687
  sub9                       5.67       0.00       0.00       0.51       3.90       0.00       3.90        0.02     5.94   0.687
  sub10                      5.67       0.00       0.00       0.45       3.93       0.00       3.93        0.04    12.81   0.693
  sub11                      5.67       0.00       0.00       0.45       3.95       0.00       3.95        0.05    15.10   0.695
  sub12                      5.67       0.00       0.00       0.74       3.75       0.00       3.75        0.03    12.89   0.661
  sub14                      5.67       0.00       0.00       0.51       3.90       0.00       3.90        0.04    11.60   0.687
  sub15                      5.67       0.00       0.00       1.70       2.99       0.00       2.99        0.05    15.72   0.528
  sub16                      5.67       0.00       0.00       1.87       2.88       0.00       2.88        0.03    11.30   0.508
  sub17                      5.67       0.00       0.00       1.82       2.92       0.00       2.92        0.03     9.11   0.515
  sub22                      5.67       0.00       0.00       2.44       2.45       0.00       2.45        0.15    51.67   0.431
  sub23                      5.67       0.00       0.00       2.10       2.71       0.00       2.71        0.13    44.04   0.477
  sub60                      5.67       0.00       0.00       0.68       2.60       0.00       2.60        0.79    71.62   0.458
  sub61                      5.67       0.00       0.00       0.96       2.79       0.00       2.79        0.86    90.46   0.491
  sub62                      5.67       0.00       0.00       0.45       2.99       0.00       2.99        0.92    92.26   0.526
  sub63                      5.67       0.00       0.00       1.65       2.49       0.00       2.49        0.75    84.67   0.438
  sub64                      5.67       0.00       0.00       0.85       2.48       0.00       2.48        0.75    68.00   0.437
  sub65                      5.67       0.00       0.00       0.74       2.51       0.00       2.51        0.77    68.98   0.443
  sub66                      5.67       0.00       0.00       1.65       2.17       0.00       2.17        0.66    62.44   0.382
  sub67                      5.67       0.00       0.00       0.45       3.30       0.00       3.30        1.02   119.23   0.581
  sub68                      5.67       0.00       0.00       0.79       2.97       0.00       2.97        0.91   100.20   0.523
  sub69                      5.67       0.00       0.00       0.85       3.22       0.00       3.22        0.75   100.31   0.567
  sub70                      5.67       3.28       0.00       3.05       3.92       0.00       3.92        0.90    79.28   0.438
  sub71                      5.67       0.00       0.00       0.45       2.85       0.00       2.85        0.67    64.24   0.503
  sub72                      5.67       0.00       0.00       0.40       2.00       0.00       2.00        0.41    30.10   0.352
  sub73                      5.67       3.81       0.00       3.23       3.97       0.00       3.97        0.93    67.93   0.418
  sub74                      5.67       0.00       0.00       4.26       0.97       0.00       0.97        0.39    56.14   0.171
  
  
  ******************
  Node Depth Summary
  ******************
  
  ---------------------------------------------------------------------------------
                                 Average  Maximum  Maximum  Time of Max    Reported
                                   Depth    Depth      HGL   Occurrence   Max Depth
  Node                 Type       Meters   Meters   Meters  days hr:min      Meters
  ---------------------------------------------------------------------------------
  WS02001211           JUNCTION     0.61     0.63     5.47     0  03:15        0.63
  WS02001212           JUNCTION     0.34     0.36     5.43     0  03:14        0.36
  WS02001213           JUNCTION     0.57     0.61     5.38     0  03:13        0.61
  WS02003069           JUNCTION     0.40     0.46     5.05     0  03:12        0.46
  WS02003072           JUNCTION     0.47     0.53     4.90     0  03:13        0.53
  WS02003073           JUNCTION     0.28     0.32     4.38     0  03:14        0.32
  WS02003060           JUNCTION     0.36     0.41     5.34     0  03:12        0.41
  WS02003066           JUNCTION     0.22     0.27     5.82     0  03:10        0.27
  WS02003059           JUNCTION     0.63     0.68     5.37     0  03:13        0.68
  WS02003067           JUNCTION     0.56     0.65     5.97     0  03:10        0.65
  WS02004401           JUNCTION     0.65     0.75     6.75     0  03:06        0.75
  WS02004402           JUNCTION     0.68     0.78     6.74     0  03:06        0.78
  WS02004403           JUNCTION     0.70     0.80     6.73     0  03:06        0.80
  WS02004404           JUNCTION     0.78     0.88     6.73     0  03:06        0.88
  WS02004406           JUNCTION     0.79     0.88     6.71     0  03:06        0.88
  WS02004409           JUNCTION     0.47     0.58     6.35     0  03:09        0.58
  WS02004410           JUNCTION     0.49     0.59     6.31     0  03:09        0.59
  WS02004411           JUNCTION     0.50     0.61     6.29     0  03:09        0.61
  WS02004412           JUNCTION     0.52     0.62     6.26     0  03:09        0.62
  WS02004413           JUNCTION     0.68     0.79     6.26     0  03:09        0.79
  WS02004405           JUNCTION     0.77     0.88     6.73     0  03:06        0.88
  WS02006109           JUNCTION     0.72     0.84     7.45     0  03:01        0.84
  WS02006110           JUNCTION     0.72     0.82     7.41     0  03:01        0.82
  WS02006111           JUNCTION     0.21     0.25     6.96     0  03:02        0.25
  WS02006112           JUNCTION     0.81     0.93     6.82     0  03:05        0.93
  WS02006113           JUNCTION     0.32     0.39     7.29     0  03:02        0.39
  WS02006115           JUNCTION     0.54     0.65     6.79     0  03:05        0.65
  WS02006116           JUNCTION     0.62     0.73     6.77     0  03:05        0.73
  WS02006230           JUNCTION     0.67     0.83     7.57     0  03:02        0.83
  WS02006231           JUNCTION     0.44     0.54     7.66     0  03:04        0.54
  WS02006232           JUNCTION     0.58     0.68     7.71     0  03:04        0.68
  WS02006234           JUNCTION     0.49     0.59     7.75     0  03:05        0.59
  WS02006235           JUNCTION     0.52     0.62     7.79     0  03:05        0.62
  WS02006238           JUNCTION     0.55     0.65     7.79     0  03:05        0.65
  WS02006240           JUNCTION     0.44     0.54     7.83     0  03:05        0.54
  WS02006242           JUNCTION     0.49     0.59     7.86     0  03:06        0.59
  WS02006243           JUNCTION     0.37     0.46     7.88     0  03:06        0.46
  WS02006245           JUNCTION     0.35     0.44     7.92     0  03:05        0.44
  WS02006247           JUNCTION     0.37     0.45     7.95     0  03:05        0.45
  WS02006248           JUNCTION     0.32     0.39     7.98     0  03:04        0.39
  WS02006249           JUNCTION     0.36     0.43     8.03     0  03:04        0.43
  WS02006239           JUNCTION     0.50     0.60     7.81     0  03:05        0.60
  WS02006251           JUNCTION     0.35     0.41     8.08     0  03:02        0.41
  WS02006252           JUNCTION     0.30     0.35     8.59     0  02:50        0.35
  WS02006253           JUNCTION     0.38     0.44     8.08     0  03:02        0.44
  WS02006256           JUNCTION     0.97     1.15     8.09     0  00:00        1.12
  WS02004138           JUNCTION     0.14     0.14     7.39     0  00:20        0.14
  WS02004407           JUNCTION     0.21     0.26     6.57     0  03:06        0.26
  WS02006228           JUNCTION     0.71     0.85     7.50     0  03:01        0.85
  WS02006229           JUNCTION     0.68     0.83     7.52     0  03:01        0.83
  WS02006280           JUNCTION     0.05     0.14     8.41     0  02:18        0.14
  WS02006284           JUNCTION     0.34     0.48     8.88     0  02:18        0.48
  WS02006287           JUNCTION     0.07     0.21     9.16     0  02:18        0.21
  WSF200               JUNCTION     0.21     0.26     5.50     0  03:10        0.26
  HS02004901           JUNCTION     0.11     0.23    10.05     0  02:15        0.23
  HS02004881           JUNCTION     0.01     0.02     9.05     0  02:17        0.02
  HS02004876           JUNCTION     0.03     0.10     9.13     0  02:16        0.10
  HS02004870           JUNCTION     0.01     0.04     9.33     0  02:18        0.04
  HS02004862           JUNCTION     0.01     0.05     9.43     0  02:19        0.05
  HS02004856           JUNCTION     0.07     0.10     9.53     0  02:18        0.10
  HS02004852           JUNCTION     0.01     0.03     9.54     0  02:19        0.03
  HS02004848           JUNCTION     0.01     0.03     9.63     0  02:17        0.03
  HS02004842           JUNCTION     0.33     0.36     9.63     0  02:17        0.36
  HS02004837           JUNCTION     0.03     0.05     9.63     0  02:17        0.05
  HS02004830           JUNCTION     0.04     0.06     9.53     0  02:18        0.06
  HS02004824           JUNCTION     0.02     0.04     9.44     0  02:21        0.04
  HS02004817           JUNCTION     0.42     0.52     9.37     0  02:18        0.52
  HS02004807           JUNCTION     0.11     0.20     9.37     0  02:18        0.20
  HS02004802           JUNCTION     0.15     0.23     9.36     0  02:18        0.23
  HS02004799           JUNCTION     0.09     0.25     9.46     0  02:16        0.25
  HS02004792           JUNCTION     0.02     0.10     9.62     0  02:15        0.10
  HS02004788           JUNCTION     0.02     0.07     9.97     0  02:16        0.07
  HS02004785           JUNCTION     0.03     0.13    10.03     0  02:16        0.13
  HS02004777           JUNCTION     0.13     0.25    10.05     0  02:16        0.25
  HS02004770           JUNCTION     0.10     0.22    10.05     0  02:16        0.22
  HS02004480           JUNCTION     0.06     0.20     9.44     0  02:17        0.20
  HS02004479           JUNCTION     0.09     0.23     9.44     0  02:16        0.23
  HS02004478           JUNCTION     0.05     0.12     9.35     0  02:18        0.12
  YS02001745           JUNCTION     0.09     0.17     7.68     0  05:24        0.16
  YS02001748           JUNCTION     0.43     0.58     7.66     0  05:30        0.57
  YS02001751           JUNCTION     0.61     0.79     7.67     0  05:13        0.78
  YS02001754           JUNCTION     0.86     1.11     7.71     0  05:13        1.05
  YS02001762           JUNCTION     1.05     1.45     7.85     0  05:04        1.34
  YS02001765           JUNCTION     1.01     1.46     7.91     0  05:04        1.32
  YS02001767           JUNCTION     0.97     1.49     7.98     0  05:04        1.32
  YS02001770           JUNCTION     0.97     1.57     8.07     0  05:04        1.36
  YS02001774           JUNCTION     1.03     1.68     8.10     0  05:05        1.45
  YS02001779           JUNCTION     0.79     1.47     8.15     0  05:05        1.22
  YS02001882           JUNCTION     0.27     0.44     7.16     0  02:52        0.44
  YS02001884           JUNCTION     0.37     0.54     7.16     0  02:51        0.54
  YS02001759           JUNCTION     1.09     1.41     7.78     0  05:04        1.34
  YS02001887           JUNCTION     0.44     0.62     7.16     0  02:51        0.62
  YS02001890           JUNCTION     0.47     0.65     7.16     0  02:52        0.65
  YS02001898           JUNCTION     0.24     0.41     7.14     0  02:52        0.41
  YS02001901           JUNCTION     0.36     0.53     7.14     0  02:53        0.53
  YS02001904           JUNCTION     0.34     0.51     7.14     0  02:53        0.51
  YS02001907           JUNCTION     0.67     0.85     7.14     0  02:52        0.85
  YS02001910           JUNCTION     0.46     0.63     7.14     0  02:52        0.63
  YS02001915           JUNCTION     0.26     0.42     7.14     0  02:52        0.42
  YS02001918           JUNCTION     0.07     0.09     7.16     0  03:03        0.09
  YS02001619           JUNCTION     0.57     0.74     7.67     0  05:21        0.74
  YS02001629           JUNCTION     0.92     1.13     7.68     0  05:21        1.12
  YS02001641           JUNCTION     1.02     1.31     7.74     0  05:26        1.24
  YS02001644           JUNCTION     1.03     1.32     7.75     0  05:26        1.24
  YS02001652           JUNCTION     0.87     1.16     7.76     0  04:21        1.10
  YS02001655           JUNCTION     0.64     0.85     7.70     0  05:21        0.85
  YS02001920           JUNCTION     0.17     0.20     7.21     0  03:02        0.20
  YS02001923           JUNCTION     0.06     0.08     7.34     0  03:02        0.08
  YS02001926           JUNCTION     0.14     0.17     7.62     0  03:01        0.17
  YS02001929           JUNCTION     0.06     0.08     7.78     0  03:01        0.08
  YS02001658           JUNCTION     0.37     0.53     7.68     0  05:09        0.53
  YS02001661           JUNCTION     0.17     0.29     7.69     0  05:22        0.28
  YS02001664           JUNCTION     0.06     0.11     8.04     0  02:44        0.11
  YS02001622           JUNCTION     0.59     0.76     7.66     0  05:22        0.75
  YS02001633           JUNCTION     1.01     1.25     7.71     0  05:26        1.22
  YS02001649           JUNCTION     1.06     1.31     7.70     0  04:51        1.29
  YS02001757           JUNCTION     1.19     1.43     7.69     0  05:04        1.40
  YS02001895           JUNCTION     0.24     0.40     7.15     0  02:53        0.40
  YS02001625           JUNCTION     0.87     1.09     7.69     0  05:09        1.08
  YS02163301           JUNCTION     0.95     1.17     7.69     0  05:21        1.16
  YS02163601           JUNCTION     1.06     1.33     7.73     0  05:26        1.28
  YS02164001           JUNCTION     1.00     1.28     7.74     0  05:26        1.22
  YS02001647           JUNCTION     0.86     1.14     7.75     0  05:26        1.08
  YSB1154              JUNCTION     0.23     0.38     9.44     0  02:16        0.38
  YSB6556              JUNCTION     0.13     0.27     9.44     0  02:17        0.27
  YSB1174              JUNCTION     0.18     0.33     9.44     0  02:16        0.33
  YSB1171              JUNCTION     0.38     0.53     9.44     0  02:17        0.53
  YS02006553           JUNCTION     0.67     0.85     7.14     0  02:53        0.85
  YS02006561           JUNCTION     0.13     0.22     6.88     0  02:53        0.22
  YS02006556           JUNCTION     0.65     0.82     7.14     0  02:53        0.82
  YS02006558           JUNCTION     0.69     0.87     7.13     0  02:53        0.87
  YS02001783           JUNCTION     0.23     0.39     6.53     0  02:53        0.39
  YS02001784           JUNCTION     0.26     0.42     6.49     0  02:53        0.42
  YS02001786           JUNCTION     0.22     0.35     6.38     0  02:54        0.35
  YS02001788           JUNCTION     0.16     0.27     6.24     0  02:54        0.27
  YS02001790           JUNCTION     0.20     0.32     5.97     0  02:54        0.32
  YS02001791           JUNCTION     0.13     0.21     5.68     0  02:54        0.21
  YS02001793           JUNCTION     0.08     0.14     4.97     0  02:39        0.14
  WS02004139           JUNCTION     0.55     0.57     5.48     0  03:15        0.57
  WSC                  OUTFALL      0.28     0.32     0.99     0  03:14        0.32
  3                    OUTFALL      0.04     0.13     6.13     0  00:00        0.12
  4                    OUTFALL      0.00     0.00     7.00     0  00:00        0.00
  5                    OUTFALL      0.00     0.00     5.00     0  00:00        0.00
  JK-storage           STORAGE      0.06     3.00     3.80     0  00:00        2.70
  CC-storage           STORAGE      0.46     0.63     7.63     0  05:17        0.63
  XR-storage           STORAGE      7.56     7.72     5.72     0  02:30        7.72
  
  
  *******************
  Node Inflow Summary
  *******************
  
  -------------------------------------------------------------------------------------------------
                                  Maximum  Maximum                  Lateral       Total        Flow
                                  Lateral    Total  Time of Max      Inflow      Inflow     Balance
                                   Inflow   Inflow   Occurrence      Volume      Volume       Error
  Node                 Type           LPS      LPS  days hr:min    10^6 ltr    10^6 ltr     Percent
  -------------------------------------------------------------------------------------------------
  WS02001211           JUNCTION      7.35   197.99     0  02:52       0.207        5.45       0.590
  WS02001212           JUNCTION      0.00   198.37     0  02:52           0        5.42       0.294
  WS02001213           JUNCTION      0.00   198.71     0  02:52           0        5.41       0.380
  WS02003069           JUNCTION      0.32   624.90     0  03:12     0.00902        12.3       0.213
  WS02003072           JUNCTION      0.00   624.88     0  03:13           0        12.2       0.266
  WS02003073           JUNCTION      1.82   626.69     0  03:13      0.0514        12.3       0.295
  WS02003060           JUNCTION     16.53   624.57     0  03:11       0.466        12.3       0.202
  WS02003066           JUNCTION      0.00   412.11     0  03:10           0        6.47       0.065
  WS02003059           JUNCTION      0.00   199.51     0  02:51           0        5.39       0.685
  WS02003067           JUNCTION      0.00   412.10     0  03:10           0        6.48       0.139
  WS02004401           JUNCTION      0.00   413.87     0  03:04           0         6.7       0.309
  WS02004402           JUNCTION      0.00   413.59     0  03:05           0        6.68       0.292
  WS02004403           JUNCTION      0.00   413.44     0  03:05           0        6.66       0.267
  WS02004404           JUNCTION      0.16   413.51     0  03:05     0.00457        6.65       0.203
  WS02004406           JUNCTION      0.00   413.49     0  03:06           0        6.62       0.495
  WS02004409           JUNCTION      0.00   413.46     0  03:06           0        6.58       0.233
  WS02004410           JUNCTION      0.00   412.94     0  03:07           0        6.56       0.265
  WS02004411           JUNCTION      0.00   412.54     0  03:08           0        6.55       0.274
  WS02004412           JUNCTION      0.00   412.29     0  03:08           0        6.53       0.298
  WS02004413           JUNCTION      0.00   412.15     0  03:09           0        6.51       0.444
  WS02004405           JUNCTION      0.04   413.52     0  03:06     0.00107        6.64       0.303
  WS02006109           JUNCTION      1.23   413.58     0  03:02      0.0347         6.8       0.317
  WS02006110           JUNCTION      0.00   413.59     0  03:01           0        6.78       0.283
  WS02006111           JUNCTION      0.00   423.27     0  03:02           0        6.75       0.062
  WS02006112           JUNCTION      9.11   416.61     0  03:02      0.0251        6.77       0.419
  WS02006113           JUNCTION      0.00   413.61     0  03:02           0        6.76       0.136
  WS02006115           JUNCTION      0.00   415.05     0  03:03           0        6.74       0.284
  WS02006116           JUNCTION      0.00   414.31     0  03:04           0        6.72       0.271
  WS02006230           JUNCTION     10.28   328.87     0  03:12        0.29        5.93       0.245
  WS02006231           JUNCTION      0.00   318.04     0  03:11           0        5.65       0.144
  WS02006232           JUNCTION      0.00   317.78     0  03:11           0        5.67       0.275
  WS02006234           JUNCTION      0.00   317.47     0  03:10           0        5.67       0.130
  WS02006235           JUNCTION      0.00   317.31     0  03:10           0        5.71       0.180
  WS02006238           JUNCTION      0.00   215.26     0  03:08           0        3.77       0.194
  WS02006240           JUNCTION      0.00   214.99     0  03:06           0        3.76       0.296
  WS02006242           JUNCTION      0.00   215.01     0  03:05           0        3.76       0.365
  WS02006243           JUNCTION      0.00   215.28     0  03:03           0        3.76       0.177
  WS02006245           JUNCTION      0.00   215.58     0  02:56           0        3.77       0.207
  WS02006247           JUNCTION      0.00   216.77     0  02:55           0        3.78       0.178
  WS02006248           JUNCTION      0.00   217.70     0  02:55           0        3.78       0.121
  WS02006249           JUNCTION      0.00   218.54     0  02:53           0        3.79       0.253
  WS02006239           JUNCTION      0.00   215.11     0  03:07           0        3.76       0.288
  WS02006251           JUNCTION      0.08   220.78     0  02:50     0.00217         3.8       0.231
  WS02006252           JUNCTION      0.00   200.00     0  02:50           0        3.66       0.012
  WS02006253           JUNCTION      1.40    39.91     0  02:17     0.00325       0.141       2.778
  WS02006256           JUNCTION      0.00   300.00     0  00:00           0        3.23       0.085
  WS02004138           JUNCTION      0.00   190.00     0  01:40           0        5.27       0.061
  WS02004407           JUNCTION      0.00   413.47     0  03:06           0        6.59       0.106
  WS02006228           JUNCTION      0.00   412.37     0  03:02           0        6.78       0.219
  WS02006229           JUNCTION      0.00   412.34     0  03:01           0        6.79       0.183
  WS02006280           JUNCTION      0.00   205.38     0  02:18           0       0.872       0.008
  WS02006284           JUNCTION      0.10   205.37     0  02:18      0.0027       0.874       0.122
  WS02006287           JUNCTION      0.00   205.25     0  02:18           0       0.872       0.083
  WSF200               JUNCTION      0.00   412.11     0  03:10           0        6.47       0.062
  HS02004901           JUNCTION     11.30    11.30     0  02:10      0.0302      0.0303       6.151
  HS02004881           JUNCTION      4.56    38.85     0  02:17      0.0132       0.138       0.175
  HS02004876           JUNCTION      7.20    34.61     0  02:17      0.0252       0.126       0.420
  HS02004870           JUNCTION      8.01    27.57     0  02:17      0.0249         0.1       0.106
  HS02004862           JUNCTION      6.54    20.11     0  02:18      0.0305      0.0757       0.223
  HS02004856           JUNCTION      5.94    13.62     0  02:17      0.0187      0.0467       3.186
  HS02004852           JUNCTION      0.00     8.08     0  02:17           0       0.028       0.180
  HS02004848           JUNCTION     12.98    12.98     0  02:20      0.0593      0.0593       0.073
  HS02004842           JUNCTION      0.00     5.36     0  02:30           0      0.0443      41.502
  HS02004837           JUNCTION     19.16    23.70     0  02:16       0.222       0.254       0.321
  HS02004830           JUNCTION      0.15    23.84     0  02:17     0.00423       0.244       0.508
  HS02004824           JUNCTION     14.54    38.20     0  02:20      0.0777       0.321       0.168
  HS02004817           JUNCTION      0.60    38.80     0  02:21      0.0169       0.337       5.203
  HS02004807           JUNCTION     15.10    52.50     0  02:19      0.0458       0.366       1.168
  HS02004802           JUNCTION      0.00    52.78     0  02:20           0       0.362       1.135
  HS02004799           JUNCTION     11.60   130.23     0  02:15      0.0371       0.451       0.505
  HS02004792           JUNCTION     51.95   118.91     0  02:15       0.162       0.414       0.099
  HS02004788           JUNCTION     17.39    69.26     0  02:16      0.0986       0.253       0.155
  HS02004785           JUNCTION      0.15    52.31     0  02:15     0.00423       0.156       0.309
  HS02004777           JUNCTION      0.03    52.60     0  02:14    0.000846       0.157       3.415
  HS02004770           JUNCTION     44.04    53.94     0  02:12       0.129       0.157       2.005
  HS02004480           JUNCTION      0.00   153.47     0  02:17           0       0.526       0.138
  HS02004479           JUNCTION      0.00    23.78     0  02:18           0      0.0871       0.844
  HS02004478           JUNCTION      0.00   205.24     0  02:18           0       0.872       0.072
  YS02001745           JUNCTION     71.63    71.63     0  03:00       0.787       0.788       0.119
  YS02001748           JUNCTION      0.04   115.71     0  03:30     0.00127       0.829       0.730
  YS02001751           JUNCTION      0.01   170.53     0  03:30     0.00031       0.828       1.715
  YS02001754           JUNCTION      0.26   104.76     0  04:32     0.00733       0.783       2.695
  YS02001762           JUNCTION      0.00   120.76     0  02:59           0       0.867       2.401
  YS02001765           JUNCTION      0.00   118.46     0  03:00           0       0.868       2.674
  YS02001767           JUNCTION      0.54   143.88     0  03:01      0.0151       0.886       3.884
  YS02001770           JUNCTION     92.41   149.43     0  03:00       0.922        1.03       2.798
  YS02001774           JUNCTION      0.00    60.57     0  03:00           0        0.24      11.478
  YS02001779           JUNCTION      0.01    59.88     0  03:00    0.000141       0.112      12.132
  YS02001882           JUNCTION      0.00     4.01     0  02:10           0     0.00511      47.814
  YS02001884           JUNCTION      0.00    11.57     0  02:07           0      0.0204      30.916
  YS02001759           JUNCTION     90.50   208.92     0  02:57        0.86        1.69       1.339
  YS02001887           JUNCTION    119.68   119.68     0  02:41        1.03        1.04       0.688
  YS02001890           JUNCTION      0.00   118.99     0  02:44           0        1.02       0.772
  YS02001898           JUNCTION      0.00   118.42     0  02:47           0           1       0.214
  YS02001901           JUNCTION      0.00   118.33     0  02:46           0           1       0.547
  YS02001904           JUNCTION      0.00   117.74     0  02:48           0           1       0.509
  YS02001907           JUNCTION      0.00   213.59     0  02:54           0        2.15       1.034
  YS02001910           JUNCTION      0.00    97.51     0  03:00           0        1.15       0.882
  YS02001915           JUNCTION     64.26    96.85     0  03:01       0.674        1.16       0.389
  YS02001918           JUNCTION      0.00    32.96     0  03:02           0       0.485       0.227
  YS02001619           JUNCTION     62.44    62.44     0  02:56       0.664       0.665       0.972
  YS02001629           JUNCTION      0.00   104.14     0  03:15           0       0.625       3.098
  YS02001641           JUNCTION      0.00   148.27     0  03:02           0         1.3       1.591
  YS02001644           JUNCTION     68.04   217.41     0  03:03       0.755        2.03       1.287
  YS02001652           JUNCTION      0.00   109.54     0  02:45           0       0.761       2.160
  YS02001655           JUNCTION      0.15   171.82     0  03:24     0.00434         0.8       1.985
  YS02001920           JUNCTION      2.87    32.98     0  03:02      0.0809       0.487       0.414
  YS02001923           JUNCTION      0.04    30.12     0  03:01     0.00106       0.406       0.073
  YS02001926           JUNCTION      0.05    30.14     0  03:01     0.00147       0.407       0.518
  YS02001929           JUNCTION     30.10    30.10     0  03:01       0.406       0.406       0.070
  YS02001658           JUNCTION      0.00   125.53     0  04:43           0       0.887       0.688
  YS02001661           JUNCTION      0.00    88.11     0  05:20           0       0.845       0.106
  YS02001664           JUNCTION     84.67    84.67     0  02:44       0.753       0.753       0.019
  YS02001622           JUNCTION      0.00    87.26     0  03:14           0       0.681       2.762
  YS02001633           JUNCTION     69.18   157.97     0  03:06       0.777        1.35       2.184
  YS02001649           JUNCTION      0.00   317.14     0  03:02           0         2.7       1.370
  YS02001757           JUNCTION      0.00   531.07     0  03:00           0        5.03       1.856
  YS02001895           JUNCTION      0.00   118.52     0  02:44           0        1.01       0.367
  YS02001625           JUNCTION      0.00    92.94     0  03:24           0       0.678       5.342
  YS02163301           JUNCTION      0.00   105.10     0  03:26           0       0.599       3.896
  YS02163601           JUNCTION      0.11   151.39     0  02:55      0.0031        1.32       2.273
  YS02164001           JUNCTION      0.00   153.48     0  02:59           0         1.3       1.409
  YS02001647           JUNCTION      0.00   214.16     0  03:03           0        1.99       1.211
  YSB1154              JUNCTION     12.81    12.81     0  02:14      0.0449      0.0463       3.221
  YSB6556              JUNCTION      0.00    12.76     0  02:16           0      0.0473       2.706
  YSB1174              JUNCTION     12.89    12.89     0  02:09      0.0327      0.0338       3.948
  YSB1171              JUNCTION      0.00    23.72     0  02:15           0      0.0866       7.871
  YS02006553           JUNCTION      0.00   213.65     0  02:56           0        2.14       0.671
  YS02006561           JUNCTION      0.00   313.59     0  02:53           0        3.02       0.021
  YS02006556           JUNCTION      0.00   213.74     0  02:56           0        2.14       0.484
  YS02006558           JUNCTION    101.08   313.61     0  02:53       0.938        3.05       0.148
  YS02001783           JUNCTION      0.00   313.59     0  02:53           0        3.02       0.050
  YS02001784           JUNCTION      1.06   314.65     0  02:53      0.0299        3.05       0.082
  YS02001786           JUNCTION      0.06   314.69     0  02:53     0.00159        3.05       0.080
  YS02001788           JUNCTION      0.07   314.75     0  02:54       0.002        3.05       0.046
  YS02001790           JUNCTION      0.15   314.90     0  02:54     0.00437        3.05       0.057
  YS02001791           JUNCTION      0.00   314.89     0  02:54           0        3.05       0.029
  YS02001793           JUNCTION      0.00   314.89     0  02:54           0        3.05       0.012
  WS02004139           JUNCTION      0.32   190.33     0  00:20     0.00905        5.28       0.580
  WSC                  OUTFALL       0.00   626.67     0  03:14           0        12.2       0.000
  3                    OUTFALL       0.00   250.55     0  00:00           0        1.25       0.000
  4                    OUTFALL       0.00     0.00     0  00:00           0           0       0.000 ltr
  5                    OUTFALL       0.00     0.00     0  00:00           0           0       0.000 ltr
  JK-storage           STORAGE       0.00   314.89     0  02:54           0         3.2      -0.850
  CC-storage           STORAGE       0.00   524.77     0  03:01           0        4.93       0.548
  XR-storage           STORAGE     316.43   316.43     0  02:51        6.96        7.56       0.000
  
  
  **********************
  Node Surcharge Summary
  **********************
  
  Surcharging occurs when water rises above the top of the highest conduit.
  ---------------------------------------------------------------------
                                               Max. Height   Min. Depth
                                   Hours       Above Crown    Below Rim
  Node                 Type      Surcharged         Meters       Meters
  ---------------------------------------------------------------------
  WS02006109           JUNCTION        0.29          0.016        1.804
  WS02006228           JUNCTION        0.25          0.015        2.185
  YS02001754           JUNCTION        0.02          0.057        1.093
  YS02001762           JUNCTION        5.07          0.452        0.698
  YS02001765           JUNCTION        4.87          0.462        0.638
  YS02001767           JUNCTION        4.14          0.491        0.539
  YS02001770           JUNCTION        3.56          0.543        0.377
  YS02001774           JUNCTION        5.02          0.680        0.370
  YS02001779           JUNCTION        0.11          0.467        0.213
  YS02001759           JUNCTION        5.14          0.414        0.796
  YS02001641           JUNCTION        4.97          0.307        0.793
  YS02001644           JUNCTION        4.99          0.316        0.604
  YS02001652           JUNCTION        0.92          0.135        0.995
  YS02001633           JUNCTION        4.50          0.233        0.827
  YS02001649           JUNCTION        5.09          0.307        0.743
  YS02001757           JUNCTION        5.31          0.428        0.782
  YS02001625           JUNCTION        1.97          0.088        0.692
  YS02163301           JUNCTION        3.71          0.172        0.858
  YS02163601           JUNCTION        5.09          0.332        0.748
  YS02164001           JUNCTION        4.83          0.283        0.817
  YS02001647           JUNCTION        1.64          0.137        0.763
  
  
  *********************
  Node Flooding Summary
  *********************
  
  Flooding refers to all water that overflows a node, whether it ponds or not.
  --------------------------------------------------------------------------
                                                             Total   Maximum
                                 Maximum   Time of Max       Flood    Ponded
                        Hours       Rate    Occurrence      Volume     Depth
  Node                 Flooded       LPS   days hr:min    10^6 ltr    Meters
  --------------------------------------------------------------------------
  XR-storage              5.33    126.43      0  02:51       1.361     0.000
  
  
  **********************
  Storage Volume Summary
  **********************
  
  --------------------------------------------------------------------------------------------------
                         Average     Avg  Evap Exfil       Maximum     Max    Time of Max    Maximum
                          Volume    Pcnt  Pcnt  Pcnt        Volume    Pcnt     Occurrence    Outflow
  Storage Unit           1000 m3    Full  Loss  Loss       1000 m3    Full    days hr:min        LPS
  --------------------------------------------------------------------------------------------------
  JK-storage               0.003       1     0     0         0.151      52       0  00:00     300.00
  CC-storage               1.275       8     0     0         1.762      11       0  05:17     200.00
  XR-storage               0.907      98     0     0         0.926     100       0  02:30     190.00
  
  
  ***********************
  Outfall Loading Summary
  ***********************
  
  -----------------------------------------------------------
                         Flow       Avg       Max       Total
                         Freq      Flow      Flow      Volume
  Outfall Node           Pcnt       LPS       LPS    10^6 ltr
  -----------------------------------------------------------
  WSC                   99.99    504.54    626.67      12.219
  3                     62.33     91.09    250.55       1.252
  4                      0.00      0.00      0.00       0.000
  5                      0.00      0.00      0.00       0.000
  -----------------------------------------------------------
  System                40.58    595.62    823.89      13.471
  
  
  ********************
  Link Flow Summary
  ********************
  
  -----------------------------------------------------------------------------
                                 Maximum  Time of Max   Maximum    Max/    Max/
                                  |Flow|   Occurrence   |Veloc|    Full    Full
  Link                 Type          LPS  days hr:min     m/sec    Flow   Depth
  -----------------------------------------------------------------------------
  WS02003066WSF200     CONDUIT    412.11     0  03:10      2.57    0.07    0.20
  WS02006287WS02006284 CONDUIT    205.27     0  02:18      1.62    0.10    0.22
  WS02006284WS02006280 CONDUIT    205.38     0  02:18      1.86    0.09    0.20
  WS02006280WS02006229 CONDUIT    205.38     0  02:18      2.99    0.04    0.14
  WS02006229WS02006228 CONDUIT    412.37     0  03:02      0.83    1.37    1.00
  WS02006256WS02006235 CONDUIT    166.25     0  00:01      2.58    1.76    1.00
  WS02006253WS02006251 CONDUIT     39.88     0  02:17      0.49    0.12    0.60
  WS02006252WS02006251 CONDUIT    200.33     0  02:50      1.97    0.74    0.76
  WS02006251WS02006249 CONDUIT    218.54     0  02:53      0.94    0.63    0.60
  WS02006249WS02006248 CONDUIT    217.70     0  02:55      1.02    1.19    0.57
  WS02006248WS02006247 CONDUIT    216.77     0  02:55      0.98    0.47    0.60
  WS02006247WS02006245 CONDUIT    215.58     0  02:56      0.93    1.71    0.63
  WS02006245WS02006243 CONDUIT    215.28     0  03:03      0.95    0.64    0.64
  WS02006243WS02006242 CONDUIT    215.01     0  03:05      0.79    0.46    0.73
  WS02006242WS02006240 CONDUIT    214.99     0  03:06      0.72    0.85    0.80
  WS02006240WS02006239 CONDUIT    215.11     0  03:07      0.75    0.68    0.78
  WS02006239WS02006238 CONDUIT    215.26     0  03:08      0.67    0.69    0.88
  WS02006238WS02006235 CONDUIT    215.37     0  03:08      1.25    0.48    0.91
  WS02006235WS02006234 CONDUIT    317.47     0  03:10      0.94    3.35    0.85
  WS02006234WS02006232 CONDUIT    317.78     0  03:11      1.13    0.64    0.91
  WS02006232WS02006231 CONDUIT    318.04     0  03:11      0.93    0.67    0.86
  WS02006231WS02006230 CONDUIT    318.59     0  03:12      1.28    4.83    0.70
  WS02006230WS02006229 CONDUIT    329.85     0  03:12      0.86    7.34    1.00
  WS02006228WS02006109 CONDUIT    412.35     0  03:02      0.82    1.80    1.00
  WS02006116WS02004401 CONDUIT    413.87     0  03:04      0.73    0.57    0.74
  WS02006115WS02006116 CONDUIT    414.31     0  03:04      0.79    0.53    0.66
  WS02006113WS02006111 CONDUIT    423.27     0  03:02      2.24    0.51    0.40
  WS02006112WS02006115 CONDUIT    415.05     0  03:03      0.63    0.24    0.78
  WS02006111WS02006112 CONDUIT    414.47     0  03:02      1.32    0.20    0.65
  WS02006110WS02006113 CONDUIT    413.61     0  03:02      1.03    0.38    0.75
  WS02006109WS02006110 CONDUIT    413.59     0  03:01      0.84    0.80    0.95
  WS02004411WS02004412 CONDUIT    412.29     0  03:08      0.81    0.59    0.61
  WS02004401WS02004402 CONDUIT    413.59     0  03:05      0.77    0.50    0.77
  WS02004413WS02003067 CONDUIT    412.10     0  03:10      0.96    0.18    0.54
  WS02004412WS02004413 CONDUIT    412.15     0  03:09      0.70    0.28    0.70
  WS02004410WS02004411 CONDUIT    412.54     0  03:08      0.84    0.56    0.60
  WS02004409WS02004410 CONDUIT    412.94     0  03:07      0.87    0.53    0.58
  WS02004407WS02004409 CONDUIT    413.46     0  03:06      1.34    0.15    0.42
  WS02004406WS02004407 CONDUIT    413.47     0  03:06      0.89    0.18    0.57
  WS02004405WS02004406 CONDUIT    413.49     0  03:06      0.66    0.82    0.88
  WS02004404WS02004405 CONDUIT    413.48     0  03:06      0.84    4.05    0.88
  WS02004403WS02004404 CONDUIT    413.35     0  03:05      0.74    0.30    0.84
  WS02004402WS02004403 CONDUIT    413.44     0  03:05      0.75    0.59    0.79
  WS02004139WS02001211 CONDUIT    190.64     0  02:52      0.53    0.24    0.46
  WS02004138WS02004139 CONDUIT    190.01     0  00:20      2.39    0.04    0.33
  WS02003067WS02003066 CONDUIT    412.11     0  03:10      1.04    0.13    0.38
  WS02001213WS02003059 CONDUIT    199.51     0  02:51      0.47    0.33    0.64
  WS02001212WS02001213 CONDUIT    198.71     0  02:52      1.03    0.31    0.33
  WS02001211WS02001212 CONDUIT    198.37     0  02:52      0.54    0.15    0.49
  WS02003072WS02003073 CONDUIT    624.87     0  03:13      1.50    1.35    0.40
  WS02003069WS02003072 CONDUIT    624.88     0  03:13      1.42    0.30    0.41
  WS02003060WS02003069 CONDUIT    624.58     0  03:12      1.69    0.24    0.36
  WS02003059WS02003060 CONDUIT    200.63     0  02:50      0.67    0.13    0.54
  HS02004901HS02004770 CONDUIT     10.32     0  02:14      0.05    0.04    0.32
  HS02004876HS02004881 CONDUIT     34.69     0  02:18      0.56    0.37    0.09
  HS02004870HS02004876 CONDUIT     27.55     0  02:18      0.39    0.02    0.10
  HS02004842HS02004848 CONDUIT      5.36     0  02:30      0.03    0.00    0.27
  HS02004837HS02004842 CONDUIT      5.55     0  02:30      0.41    0.00    0.29
  HS02004830HS02004837 CONDUIT     23.69     0  02:17      0.44    0.02    0.08
  HS02004824HS02004830 CONDUIT     23.84     0  02:18      0.48    0.03    0.07
  HS02004817HS02004824 CONDUIT     38.20     0  02:21      0.17    0.02    0.40
  HS02004770HS02004777 CONDUIT     52.57     0  02:14      0.23    0.10    0.33
  HS02004799HS02004480 CONDUIT    130.03     0  02:16      0.59    0.16    0.31
  HS02004792HS02004799 CONDUIT    118.85     0  02:15      0.68    0.07    0.25
  HS02004788HS02004792 CONDUIT     69.19     0  02:17      0.83    0.05    0.12
  HS02004785HS02004788 CONDUIT     52.20     0  02:16      0.51    0.39    0.15
  HS02004777HS02004785 CONDUIT     52.16     0  02:15      0.27    0.06    0.27
  HS02004480HS02004478 CONDUIT    153.45     0  02:17      0.96    0.65    0.23
  HS02004479HS02004480 CONDUIT     24.00     0  02:19      0.16    0.02    0.31
  HS02004862HS02004870 CONDUIT     20.07     0  02:19      0.47    0.02    0.06
  HS02004848HS02004852 CONDUIT      8.08     0  02:17      0.31    0.01    0.04
  HS02004856HS02004862 CONDUIT     13.59     0  02:18      0.34    0.01    0.06
  HS02004852HS02004856 CONDUIT      8.04     0  02:19      0.12    0.01    0.09
  HS02004802HS02004478 CONDUIT     53.18     0  02:21      0.30    0.05    0.26
  HS02004478WS02006287 CONDUIT    205.25     0  02:18      1.32    0.06    0.17
  HS02004817HS02004807 CONDUIT     39.35     0  02:22      0.11    0.02    0.51
  HS02004807HS02004802 CONDUIT     52.78     0  02:20      0.25    0.10    0.30
  YS02001759YS02001757 CONDUIT    213.17     0  02:58      0.27    0.15    1.00
  YS02001762YS02001759 CONDUIT    119.89     0  02:59      0.18    0.14    1.00
  YS02001765YS02001762 CONDUIT    120.76     0  02:59      0.23    0.11    1.00
  YS02001770YS02001767 CONDUIT    143.35     0  03:01      0.32    0.57    1.00
  YS02001774YS02001770 CONDUIT     60.57     0  03:00      0.15    0.04    1.00
  YS02001779YS02001774 CONDUIT     59.88     0  03:00      0.08    0.03    1.00
  YS02001649YS02001757 CONDUIT    320.58     0  03:02      0.41    0.19    1.00
  YS02001767YS02001765 CONDUIT    118.46     0  03:00      0.26    0.15    1.00
  YS02006561YS02001783 CONDUIT    313.59     0  02:53      1.79    0.16    0.38
  YS02001783YS02001784 CONDUIT    313.59     0  02:53      1.23    0.43    0.50
  YS02001784YS02001785 CONDUIT    314.63     0  02:53      1.31    0.73    0.48
  YS02001788YS02001790 CONDUIT    314.74     0  02:54      1.88    0.23    0.37
  YS02001790YS02001791 CONDUIT    314.89     0  02:54      2.15    0.34    0.33
  YS02001791YS02001793 CONDUIT    314.89     0  02:54      4.40    0.14    0.21
  YS02001910YS02001907 CONDUIT     97.66     0  03:01      0.49    0.06    0.74
  YS02001786YS02001788 CONDUIT    314.68     0  02:54      1.75    0.61    0.39
  YS02001915YS02001910 CONDUIT     97.51     0  03:00      0.44    0.05    0.53
  YS02001918YS02001915 CONDUIT     32.95     0  03:03      0.44    0.02    0.26
  YS02001923YS02001920 CONDUIT     30.11     0  03:02      0.45    0.01    0.14
  YS02001926YS02001923 CONDUIT     30.08     0  03:01      0.49    0.04    0.13
  YS02001929YS02001926 CONDUIT     30.08     0  03:01      0.52    0.01    0.13
  YS02001920YS02001918 CONDUIT     32.96     0  03:02      0.46    0.03    0.15
  YS02001629YS02163301 CONDUIT    105.10     0  03:26      0.13    0.13    1.00
  YS02001619YS02001622 CONDUIT     87.26     0  03:14      0.66    0.13    0.75
  YS02001622YS02001625 CONDUIT     90.01     0  03:24      0.25    0.05    0.88
  YS02001625YS02001629 CONDUIT    104.14     0  03:15      0.25    0.05    0.87
  YS02163301YS02001633 CONDUIT     91.59     0  03:06      0.12    0.09    1.00
  YS02163601YS02164001 CONDUIT    153.48     0  02:59      0.20    0.14    1.00
  YS02164001YS02001641 CONDUIT    148.27     0  03:02      0.19    0.20    1.00
  YS02001641YS02001644 CONDUIT    150.81     0  03:03      0.19    0.49    1.00
  YS02001647YS02001649 CONDUIT    233.98     0  03:32      0.30    0.12    1.00
  YS02006553YS02006556 CONDUIT    213.74     0  02:56      0.31    0.18    0.82
  YS02006556YS02006558 CONDUIT    213.76     0  02:56      0.30    0.17    0.85
  YSB6556YSB1171       CONDUIT     12.95     0  02:19      0.06    0.01    0.57
  YS02001907YS02006553 CONDUIT    213.65     0  02:56      0.26    0.25    0.93
  YS02006558YS02006561 CONDUIT    313.59     0  02:53      2.29    0.69    0.49
  YS02001633YS02163601 CONDUIT    151.28     0  02:55      0.19    0.16    1.00
  YS02001644YS02001647 CONDUIT    214.16     0  03:03      0.28    0.13    1.00
  YS02001745YS02001748 CONDUIT     75.37     0  05:16      1.40    0.03    0.33
  YS02001748YS02001751 CONDUIT    170.51     0  03:30      1.09    0.09    0.68
  YS02001751YS02001754 CONDUIT    104.50     0  04:32      0.97    0.05    0.89
  YS02001754YS02001757 CONDUIT    129.39     0  03:26      0.33    0.05    1.00
  YS02001882YS02001884 CONDUIT      4.01     0  02:10      0.06    0.00    0.46
  YS02001884YS02001887 CONDUIT     11.57     0  02:07      0.06    0.02    0.56
  YS02001890YS02001895 CONDUIT    118.52     0  02:44      0.29    0.06    0.53
  YS02001895YS02001898 CONDUIT    118.42     0  02:47      0.49    0.21    0.39
  YS02001898YS02001901 CONDUIT    118.33     0  02:46      0.33    0.08    0.47
  YS02001901YS02001904 CONDUIT    117.74     0  02:48      0.29    0.18    0.52
  YS02001904YS02001907 CONDUIT    117.95     0  02:48      0.21    0.04    0.68
  YS02001887YS02001890 CONDUIT    118.99     0  02:44      0.24    0.20    0.61
  YS02001652YS02001649 CONDUIT    146.40     0  03:26      0.33    0.07    1.00
  YS02001655YS02001652 CONDUIT    109.54     0  02:45      1.05    0.05    0.93
  YS02001658YS02001655 CONDUIT    171.66     0  03:24      1.26    0.07    0.68
  YS02001661YS02001658 CONDUIT    125.53     0  04:43      1.45    0.05    0.35
  YS02001664YS02001661 CONDUIT     84.67     0  02:44      1.11    0.03    0.17
  YSB1154YSB6556       CONDUIT     12.76     0  02:16      0.19    0.02    0.46
  YSB1174YSB1171       CONDUIT     11.90     0  02:11      0.06    0.02    0.58
  YSB1171HS02004479    CONDUIT     23.78     0  02:18      0.54    0.02    0.45
  HS02004881HS02006253 CONDUIT     38.84     0  02:17      1.66    0.01    0.08
  YS02001793JiankangQianchi CONDUIT    314.89     0  02:54     13.02    0.03    0.50
  YS02001757CaochengTiaoxuchi CONDUIT    524.77     0  03:01      1.01    0.23    0.82
  WSF200WS02003060     CONDUIT    412.09     0  03:10      1.58    0.09    0.28
  1                    CONDUIT    626.67     0  03:14      2.93    0.22    0.32
  2                    CONDUIT      0.00     0  00:00      0.00    0.00    0.00
  3                    CONDUIT    250.55     0  00:00      8.26    0.40    0.46
  4                    CONDUIT      0.00     0  00:00      0.00    0.00    0.00
  CC-Pump-1            PUMP       200.00     0  02:50              1.00
  CC-Pump-2            PUMP         0.00     0  00:00              0.00
  JK-Pump-1            PUMP       300.00     0  00:00              1.00
  JK-Pump-2            PUMP         0.00     0  00:00              0.00
  XR-Pump-1            PUMP        95.00     0  00:00              1.00
  XR-Pump-2            PUMP        95.00     0  01:50              1.00
  XR-Pump-3            PUMP        95.00     0  00:20              1.00
  XR-Pump-4            PUMP        95.00     0  01:50              1.00
  
  
  ***************************
  Flow Classification Summary
  ***************************
  
  -------------------------------------------------------------------------------------
                      Adjusted    ---------- Fraction of Time in Flow Class ---------- 
                       /Actual         Up    Down  Sub   Sup   Up    Down  Norm  Inlet 
  Conduit               Length    Dry  Dry   Dry   Crit  Crit  Crit  Crit  Ltd   Ctrl  
  -------------------------------------------------------------------------------------
  WS02003066WSF200        1.00   0.06  0.00  0.00  0.00  0.94  0.00  0.00  0.76  0.00
  WS02006287WS02006284    1.00   0.04  0.02  0.00  0.72  0.23  0.00  0.00  0.78  0.00
  WS02006284WS02006280    1.00   0.05  0.00  0.00  0.00  0.00  0.00  0.95  0.00  0.00
  WS02006280WS02006229    1.00   0.05  0.00  0.00  0.00  0.00  0.00  0.95  0.00  0.00
  WS02006229WS02006228    1.00   0.00  0.00  0.00  0.99  0.00  0.00  0.01  0.00  0.00
  WS02006256WS02006235    1.00   0.00  0.00  0.00  1.00  0.00  0.00  0.00  0.00  0.00
  WS02006253WS02006251    1.00   0.03  0.01  0.00  0.95  0.00  0.00  0.00  0.00  0.00
  WS02006252WS02006251    1.00   0.14  0.00  0.00  0.00  0.00  0.86  0.00  0.00  0.00
  WS02006251WS02006249    1.00   0.00  0.00  0.00  1.00  0.00  0.00  0.00  0.29  0.00
  WS02006249WS02006248    1.00   0.00  0.02  0.00  0.85  0.00  0.12  0.00  0.00  0.00
  WS02006248WS02006247    1.00   0.02  0.00  0.00  0.97  0.00  0.00  0.00  0.22  0.00
  WS02006247WS02006245    1.00   0.02  0.00  0.00  0.98  0.00  0.00  0.00  0.00  0.00
  WS02006245WS02006243    1.00   0.01  0.00  0.00  0.94  0.00  0.00  0.04  0.01  0.00
  WS02006243WS02006242    1.00   0.01  0.00  0.00  0.99  0.00  0.00  0.00  0.27  0.00
  WS02006242WS02006240    1.00   0.00  0.00  0.00  1.00  0.00  0.00  0.00  0.00  0.00
  WS02006240WS02006239    1.00   0.00  0.00  0.00  0.95  0.00  0.00  0.04  0.01  0.00
  WS02006239WS02006238    1.00   0.00  0.00  0.00  1.00  0.00  0.00  0.00  0.01  0.00
  WS02006238WS02006235    1.00   0.00  0.00  0.00  1.00  0.00  0.00  0.00  0.00  0.00
  WS02006235WS02006234    1.00   0.00  0.00  0.00  0.95  0.00  0.05  0.00  0.00  0.00
  WS02006234WS02006232    1.00   0.00  0.00  0.00  1.00  0.00  0.00  0.00  0.16  0.00
  WS02006232WS02006231    1.00   0.00  0.00  0.00  0.99  0.00  0.00  0.00  0.00  0.00
  WS02006231WS02006230    1.00   0.00  0.00  0.00  0.31  0.00  0.69  0.00  0.00  0.00
  WS02006230WS02006229    1.00   0.00  0.00  0.00  0.98  0.00  0.00  0.02  0.01  0.00
  WS02006228WS02006109    1.00   0.00  0.00  0.00  1.00  0.00  0.00  0.00  0.00  0.00
  WS02006116WS02004401    1.00   0.03  0.00  0.00  0.97  0.00  0.00  0.00  0.00  0.00
  WS02006115WS02006116    1.00   0.03  0.00  0.00  0.97  0.00  0.00  0.01  0.00  0.00
  WS02006113WS02006111    1.00   0.02  0.00  0.00  0.00  0.98  0.00  0.00  0.11  0.00
  WS02006112WS02006115    1.00   0.02  0.00  0.00  0.97  0.00  0.00  0.00  0.00  0.00
  WS02006111WS02006112    1.00   0.02  0.00  0.00  0.97  0.00  0.00  0.00  0.98  0.00
  WS02006110WS02006113    1.00   0.01  0.01  0.00  0.98  0.00  0.00  0.00  0.00  0.00
  WS02006109WS02006110    1.00   0.00  0.01  0.00  0.98  0.00  0.01  0.00  0.00  0.00
  WS02004411WS02004412    1.00   0.04  0.00  0.00  0.96  0.00  0.00  0.00  0.00  0.00
  WS02004401WS02004402    1.00   0.03  0.00  0.00  0.97  0.00  0.00  0.00  0.00  0.00
  WS02004413WS02003067    1.00   0.04  0.02  0.00  0.00  0.00  0.94  0.00  0.00  0.00
  WS02004412WS02004413    1.00   0.04  0.00  0.00  0.96  0.00  0.00  0.00  0.03  0.00
  WS02004410WS02004411    1.00   0.04  0.00  0.00  0.96  0.00  0.00  0.00  0.04  0.00
  WS02004409WS02004410    1.00   0.04  0.00  0.00  0.96  0.00  0.00  0.00  0.04  0.00
  WS02004407WS02004409    1.00   0.04  0.00  0.00  0.96  0.00  0.00  0.00  0.89  0.00
  WS02004406WS02004407    1.00   0.00  0.04  0.00  0.96  0.00  0.00  0.00  0.00  0.00
  WS02004405WS02004406    1.00   0.00  0.00  0.00  1.00  0.00  0.00  0.00  0.00  0.00
  WS02004404WS02004405    1.00   0.00  0.00  0.00  1.00  0.00  0.00  0.00  0.00  0.00
  WS02004403WS02004404    1.00   0.00  0.03  0.00  0.97  0.00  0.00  0.00  0.01  0.00
  WS02004402WS02004403    1.00   0.03  0.00  0.00  0.97  0.00  0.00  0.00  0.00  0.00
  WS02004139WS02001211    1.00   0.00  0.00  0.00  0.99  0.00  0.01  0.00  0.00  0.00
  WS02004138WS02004139    1.00   0.00  0.00  0.00  0.99  0.01  0.00  0.00  1.00  0.00
  WS02003067WS02003066    1.00   0.06  0.00  0.00  0.94  0.00  0.00  0.00  0.00  0.00
  WS02001213WS02003059    1.00   0.00  0.01  0.00  0.99  0.00  0.00  0.00  0.00  0.00
  WS02001212WS02001213    1.00   0.01  0.00  0.00  0.89  0.00  0.10  0.00  0.00  0.00
  WS02001211WS02001212    1.00   0.00  0.01  0.00  0.99  0.00  0.00  0.00  0.00  0.00
  WS02003072WS02003073    1.00   0.00  0.00  0.00  0.00  0.00  0.00  1.00  0.00  0.00
  WS02003069WS02003072    1.00   0.00  0.00  0.00  0.99  0.01  0.00  0.00  0.28  0.00
  WS02003060WS02003069    1.00   0.00  0.00  0.00  0.99  0.01  0.00  0.00  0.22  0.00
  WS02003059WS02003060    1.00   0.00  0.00  0.00  1.00  0.00  0.00  0.00  0.02  0.00
  HS02004901HS02004770    1.00   0.05  0.00  0.00  0.95  0.00  0.00  0.00  0.02  0.00
  HS02004876HS02004881    1.00   0.02  0.00  0.00  0.98  0.00  0.00  0.00  0.00  0.00
  HS02004870HS02004876    1.00   0.01  0.00  0.00  0.99  0.00  0.00  0.00  0.95  0.00
  HS02004842HS02004848    1.00   0.00  0.05  0.00  0.95  0.00  0.00  0.00  0.69  0.00
  HS02004837HS02004842    1.00   0.00  0.00  0.00  0.99  0.01  0.00  0.00  0.11  0.00
  HS02004830HS02004837    1.00   0.00  0.00  0.00  1.00  0.00  0.00  0.00  0.99  0.00
  HS02004824HS02004830    1.00   0.00  0.00  0.00  1.00  0.00  0.00  0.00  0.00  0.00
  HS02004817HS02004824    1.00   0.00  0.00  0.00  1.00  0.00  0.00  0.00  1.00  0.00
  HS02004770HS02004777    1.00   0.00  0.05  0.00  0.95  0.00  0.00  0.00  0.07  0.00
  HS02004799HS02004480    1.00   0.00  0.03  0.00  0.94  0.00  0.03  0.00  0.00  0.00
  HS02004792HS02004799    1.00   0.00  0.00  0.00  0.99  0.01  0.00  0.00  0.98  0.00
  HS02004788HS02004792    1.00   0.00  0.00  0.00  0.99  0.01  0.00  0.00  0.98  0.00
  HS02004785HS02004788    1.00   0.00  0.00  0.00  1.00  0.00  0.00  0.00  0.00  0.00
  HS02004777HS02004785    1.00   0.00  0.00  0.00  1.00  0.00  0.00  0.00  0.21  0.00
  HS02004480HS02004478    1.00   0.05  0.00  0.00  0.75  0.00  0.00  0.20  0.00  0.00
  HS02004479HS02004480    1.00   0.03  0.00  0.00  0.97  0.00  0.00  0.00  0.16  0.00
  HS02004862HS02004870    1.00   0.00  0.00  0.00  1.00  0.00  0.00  0.00  0.06  0.00
  HS02004848HS02004852    1.00   0.05  0.00  0.00  0.95  0.00  0.00  0.00  0.71  0.00
  HS02004856HS02004862    1.00   0.00  0.07  0.00  0.93  0.00  0.00  0.00  0.74  0.00
  HS02004852HS02004856    1.00   0.05  0.01  0.00  0.95  0.00  0.00  0.00  0.83  0.00
  HS02004802HS02004478    1.00   0.05  0.01  0.00  0.95  0.00  0.00  0.00  0.01  0.00
  HS02004478WS02006287    1.00   0.06  0.00  0.00  0.89  0.06  0.00  0.00  0.77  0.00
  HS02004817HS02004807    1.00   0.00  0.05  0.00  0.95  0.00  0.00  0.00  0.00  0.00
  HS02004807HS02004802    1.00   0.05  0.00  0.00  0.95  0.00  0.00  0.00  0.01  0.00
  YS02001759YS02001757    1.00   0.00  0.00  0.00  1.00  0.00  0.00  0.00  0.17  0.00
  YS02001762YS02001759    1.00   0.00  0.00  0.00  1.00  0.00  0.00  0.00  0.04  0.00
  YS02001765YS02001762    1.00   0.00  0.00  0.00  1.00  0.00  0.00  0.00  0.22  0.00
  YS02001770YS02001767    1.00   0.00  0.00  0.00  1.00  0.00  0.00  0.00  0.00  0.00
  YS02001774YS02001770    1.00   0.00  0.05  0.00  0.95  0.00  0.00  0.00  0.07  0.00
  YS02001779YS02001774    1.00   0.00  0.00  0.00  1.00  0.00  0.00  0.00  0.26  0.00
  YS02001649YS02001757    1.00   0.00  0.00  0.00  1.00  0.00  0.00  0.00  0.19  0.00
  YS02001767YS02001765    1.00   0.00  0.00  0.00  1.00  0.00  0.00  0.00  0.01  0.00
  YS02006561YS02001783    1.00   0.07  0.00  0.00  0.00  0.93  0.00  0.00  0.73  0.00
  YS02001783YS02001784    1.00   0.00  0.07  0.00  0.93  0.00  0.00  0.00  0.00  0.00
  YS02001784YS02001785    1.00   0.00  0.00  0.00  1.00  0.00  0.00  0.00  0.25  0.00
  YS02001788YS02001790    1.00   0.00  0.00  0.00  0.07  0.93  0.00  0.00  0.78  0.00
  YS02001790YS02001791    1.00   0.00  0.00  0.00  0.02  0.98  0.00  0.00  0.53  0.00
  YS02001791YS02001793    1.00   0.00  0.00  0.00  0.00  1.00  0.00  0.00  0.00  0.00
  YS02001910YS02001907    1.00   0.00  0.00  0.00  0.97  0.00  0.00  0.03  0.13  0.00
  YS02001786YS02001788    1.00   0.00  0.00  0.00  0.08  0.92  0.00  0.00  0.00  0.00
  YS02001915YS02001910    1.00   0.00  0.00  0.00  0.99  0.01  0.00  0.00  0.24  0.00
  YS02001918YS02001915    1.00   0.00  0.01  0.00  0.98  0.02  0.00  0.00  0.82  0.00
  YS02001923YS02001920    1.00   0.00  0.00  0.00  1.00  0.00  0.00  0.00  1.00  0.00
  YS02001926YS02001923    1.00   0.00  0.04  0.00  0.00  0.00  0.96  0.00  0.00  0.00
  YS02001929YS02001926    1.00   0.00  0.05  0.00  0.95  0.00  0.00  0.00  0.87  0.00
  YS02001920YS02001918    1.00   0.00  0.01  0.00  0.99  0.00  0.00  0.00  0.00  0.00
  YS02001629YS02163301    1.00   0.06  0.00  0.00  0.93  0.00  0.00  0.00  0.00  0.00
  YS02001619YS02001622    1.00   0.05  0.00  0.00  0.95  0.00  0.00  0.00  0.00  0.00
  YS02001622YS02001625    1.00   0.05  0.00  0.00  0.95  0.00  0.00  0.00  0.13  0.00
  YS02001625YS02001629    1.00   0.05  0.03  0.00  0.91  0.00  0.01  0.00  0.00  0.00
  YS02163301YS02001633    1.00   0.00  0.06  0.00  0.94  0.00  0.00  0.00  0.00  0.00
  YS02163601YS02164001    1.00   0.00  0.04  0.00  0.96  0.00  0.00  0.00  0.00  0.00
  YS02164001YS02001641    1.00   0.01  0.03  0.00  0.96  0.00  0.00  0.00  0.07  0.00
  YS02001641YS02001644    1.00   0.00  0.01  0.00  0.99  0.00  0.00  0.00  0.00  0.00
  YS02001647YS02001649    1.00   0.00  0.07  0.00  0.93  0.00  0.00  0.00  0.01  0.00
  YS02006553YS02006556    1.00   0.02  0.00  0.00  0.98  0.00  0.00  0.00  0.03  0.00
  YS02006556YS02006558    1.00   0.00  0.00  0.00  1.00  0.00  0.00  0.00  0.00  0.00
  YSB6556YSB1171          1.00   0.03  0.02  0.00  0.96  0.00  0.00  0.00  0.00  0.00
  YS02001907YS02006553    1.00   0.00  0.02  0.00  0.97  0.00  0.00  0.00  0.00  0.00
  YS02006558YS02006561    1.00   0.07  0.00  0.00  0.00  0.93  0.00  0.00  0.73  0.00
  YS02001633YS02163601    1.00   0.00  0.01  0.00  0.99  0.00  0.00  0.00  0.20  0.00
  YS02001644YS02001647    1.00   0.00  0.07  0.00  0.93  0.00  0.00  0.00  0.00  0.00
  YS02001745YS02001748    1.00   0.00  0.00  0.00  0.87  0.01  0.00  0.12  0.41  0.00
  YS02001748YS02001751    1.00   0.00  0.00  0.00  0.98  0.02  0.00  0.00  0.24  0.00
  YS02001751YS02001754    1.00   0.00  0.00  0.00  0.92  0.00  0.00  0.08  0.02  0.00
  YS02001754YS02001757    1.00   0.00  0.00  0.00  0.99  0.01  0.00  0.00  0.26  0.00
  YS02001882YS02001884    1.00   0.06  0.00  0.00  0.94  0.00  0.00  0.00  0.00  0.00
  YS02001884YS02001887    1.00   0.03  0.01  0.00  0.96  0.00  0.00  0.00  0.00  0.00
  YS02001890YS02001895    1.00   0.00  0.06  0.00  0.93  0.00  0.00  0.00  0.00  0.00
  YS02001895YS02001898    1.00   0.07  0.00  0.00  0.93  0.00  0.01  0.00  0.00  0.00
  YS02001898YS02001901    1.00   0.06  0.00  0.00  0.93  0.00  0.00  0.00  0.02  0.00
  YS02001901YS02001904    1.00   0.06  0.00  0.00  0.94  0.00  0.00  0.00  0.00  0.00
  YS02001904YS02001907    1.00   0.00  0.06  0.00  0.94  0.00  0.00  0.00  0.00  0.00
  YS02001887YS02001890    1.00   0.00  0.00  0.00  0.97  0.00  0.02  0.00  0.00  0.00
  YS02001652YS02001649    1.00   0.00  0.00  0.00  1.00  0.00  0.00  0.00  0.26  0.00
  YS02001655YS02001652    1.00   0.00  0.00  0.00  0.92  0.00  0.00  0.08  0.02  0.00
  YS02001658YS02001655    1.00   0.00  0.06  0.00  0.92  0.02  0.00  0.00  0.11  0.00
  YS02001661YS02001658    1.00   0.06  0.00  0.00  0.87  0.08  0.00  0.00  0.35  0.00
  YS02001664YS02001661    1.00   0.05  0.00  0.00  0.78  0.17  0.00  0.00  0.86  0.00
  YSB1154YSB6556          1.00   0.04  0.00  0.00  0.96  0.00  0.00  0.00  0.02  0.00
  YSB1174YSB1171          1.00   0.03  0.01  0.00  0.96  0.00  0.00  0.00  0.00  0.00
  YSB1171HS02004479       1.00   0.03  0.00  0.00  0.97  0.00  0.00  0.00  0.13  0.00
  HS02004881HS02006253    1.00   0.03  0.00  0.00  0.84  0.00  0.00  0.12  0.64  0.00
  YS02001793JiankangQianchi    1.00   0.00  0.00  0.00  0.02  0.98  0.00  0.00  0.09  0.00
  YS02001757CaochengTiaoxuchi    1.00   0.00  0.08  0.00  0.92  0.00  0.00  0.00  0.00  0.00
  WSF200WS02003060        1.00   0.00  0.06  0.00  0.79  0.14  0.00  0.00  0.08  0.00
  1                       1.00   0.00  0.00  0.00  0.00  1.00  0.00  0.00  0.58  0.00
  2                       1.00   1.00  0.00  0.00  0.00  0.00  0.00  0.00  0.00  0.00
  3                       1.00   0.38  0.00  0.00  0.00  0.62  0.00  0.00  0.27  0.00
  4                       1.00   1.00  0.00  0.00  0.00  0.00  0.00  0.00  0.00  0.00
  
  
  *************************
  Conduit Surcharge Summary
  *************************
  
  ----------------------------------------------------------------------------
                                                           Hours        Hours 
                         --------- Hours Full --------   Above Full   Capacity
  Conduit                Both Ends  Upstream  Dnstream   Normal Flow   Limited
  ----------------------------------------------------------------------------
  WS02006229WS02006228        0.25      0.32      0.25      4.03         0.25
  WS02006256WS02006235        5.69      5.69      6.32      3.32         0.01
  WS02006249WS02006248        0.01      0.01      0.01      5.01         0.01
  WS02006247WS02006245        0.01      0.01      0.01      5.05         0.01
  WS02006235WS02006234        0.01      0.01      0.01      5.71         0.01
  WS02006231WS02006230        0.01      0.01      0.01      5.71         0.01
  WS02006230WS02006229        0.86      2.83      0.86      5.80         0.86
  WS02006228WS02006109        0.29      0.51      0.29      5.57         0.29
  WS02006111WS02006112        0.01      0.01      4.74      0.01         0.01
  WS02006110WS02006113        0.01      0.01      0.40      0.01         0.01
  WS02006109WS02006110        0.01      0.01      0.51      0.01         0.01
  WS02004404WS02004405        0.01      0.01      0.01      5.61         0.01
  WS02003072WS02003073        0.01      0.01      0.01      5.35         0.01
  YS02001759YS02001757        5.14      5.14      5.31      0.01         0.01
  YS02001762YS02001759        5.07      5.07      5.14      0.01         0.01
  YS02001765YS02001762        4.87      4.87      5.07      0.01         0.01
  YS02001770YS02001767        4.02      4.04      4.13      0.01         0.78
  YS02001774YS02001770        3.56      3.56      5.02      0.01         0.01
  YS02001779YS02001774        0.11      0.11      5.02      0.01         0.01
  YS02001649YS02001757        5.09      5.09      5.31      0.01         0.01
  YS02001767YS02001765        4.13      4.13      4.87      0.01         0.01
  YS02001629YS02163301        3.18      3.18      3.71      0.01         0.01
  YS02001622YS02001625        0.01      0.01      1.97      0.01         0.01
  YS02001625YS02001629        0.01      0.01      1.97      0.01         0.01
  YS02163301YS02001633        3.71      3.71      4.90      0.01         0.01
  YS02163601YS02164001        4.83      4.83      5.09      0.01         0.01
  YS02164001YS02001641        4.83      4.83      4.97      0.01         0.01
  YS02001641YS02001644        4.97      4.97      4.99      0.01         0.40
  YS02001647YS02001649        1.64      1.64      5.09      0.01         0.01
  YS02001633YS02163601        4.50      4.50      5.09      0.01         0.01
  YS02001644YS02001647        1.64      1.64      4.99      0.01         0.01
  YS02001751YS02001754        0.01      0.01      0.02      0.01         0.01
  YS02001754YS02001757        1.79      1.79      5.31      0.01         0.01
  YS02001652YS02001649        2.06      2.06      5.09      0.01         0.01
  YS02001655YS02001652        0.01      0.01      0.91      0.01         0.01
  YS02001793JiankangQianchi        0.01      0.01      0.09      0.01         0.01
  YS02001757CaochengTiaoxuchi        0.01      0.01      5.31      0.01         0.01
  
  
  ***************
  Pumping Summary
  ***************
  
  ---------------------------------------------------------------------------------------------------------
                                                  Min       Avg       Max     Total     Power    % Time Off
                        Percent   Number of      Flow      Flow      Flow    Volume     Usage    Pump Curve
  Pump                 Utilized   Start-Ups       LPS       LPS       LPS  10^6 ltr     Kw-hr    Low   High
  ---------------------------------------------------------------------------------------------------------
  CC-Pump-1               65.96           1      0.00    196.94    200.00     3.660     10.54    0.0    7.5
  CC-Pump-2                0.00           0      0.00      0.00      0.00     0.000      0.00    0.0    0.0
  JK-Pump-1              100.00           1      0.00    145.07    300.00     3.226     61.96    0.0    0.0
  JK-Pump-2                0.00           0      0.00      0.00      0.00     0.000      0.00    0.0    0.0
  XR-Pump-1               34.04           2      0.00     83.85     95.00     0.827      6.93    0.0    0.0
  XR-Pump-2               72.33           2      0.00     92.94     95.00     1.852      8.82    0.0    0.0
  XR-Pump-3               31.90           2      0.00     79.96     95.00     0.741      6.01    0.0    0.0
  XR-Pump-4               72.33           2      0.00     92.94     95.00     1.852      8.82    0.0    0.0
  

  Analysis begun on:  Thu Jan  6 02:24:29 2022
  Analysis ended on:  Thu Jan  6 02:24:32 2022
  Total elapsed time: 00:00:03