
  EPA STORM WATER MANAGEMENT MODEL - VERSION 5.1 (Build 5.3.0.dev0)
  --------------------------------------------------------------

  WARNING 04: minimum elevation drop used for Conduit WS02004404WS02004405
  WARNING 03: negative offset ignored for Link YS02001904YS02001907
  
  *********************************************************
  NOTE: The summary statistics displayed in this report are
  based on results found at every computational time step,  
  not just on results from each reporting time step.
  *********************************************************
  
  ****************
  Analysis Options
  ****************
  Flow Units ............... LPS
  Process Models:
    Rainfall/Runoff ........ YES
    RDII ................... NO
    Snowmelt ............... NO
    Groundwater ............ NO
    Flow Routing ........... YES
    Ponding Allowed ........ NO
    Water Quality .......... NO
  Infiltration Method ...... HORTON
  Flow Routing Method ...... DYNWAVE
  Surcharge Method ......... EXTRAN
  Starting Date ............ 08/28/2015 08:00:00
  Ending Date .............. 08/28/2015 15:50:00
  Antecedent Dry Days ...... 8.0
  Report Time Step ......... 00:01:00
  Wet Time Step ............ 00:01:00
  Dry Time Step ............ 00:01:00
  Routing Time Step ........ 5.00 sec
  Variable Time Step ....... YES
  Maximum Trials ........... 8
  Number of Threads ........ 4
  Head Tolerance ........... 0.001500 m
  
  
  **************************        Volume         Depth
  Runoff Quantity Continuity     hectare-m            mm
  **************************     ---------       -------
  Total Precipitation ......         3.679         8.055
  Evaporation Loss .........         0.000         0.000
  Infiltration Loss ........         0.936         2.049
  Surface Runoff ...........         1.790         3.918
  Final Storage ............         0.955         2.090
  Continuity Error (%) .....        -0.018
  
  
  **************************        Volume        Volume
  Flow Routing Continuity        hectare-m      10^6 ltr
  **************************     ---------     ---------
  Dry Weather Inflow .......         0.616         6.165
  Wet Weather Inflow .......         1.789        17.887
  Groundwater Inflow .......         0.000         0.000
  RDII Inflow ..............         0.000         0.000
  External Inflow ..........         0.102         1.024
  External Outflow .........         1.516        15.160
  Flooding Loss ............         0.442         4.416
  Evaporation Loss .........         0.000         0.000
  Exfiltration Loss ........         0.000         0.000
  Initial Stored Volume ....         0.076         0.761
  Final Stored Volume ......         0.630         6.305
  Continuity Error (%) .....        -0.174
  
  
  *************************
  Highest Continuity Errors
  *************************
  Node YS02001774 (38.04%)
  Node HS02004842 (22.75%)
  Node YS02001884 (13.07%)
  Node YSB1171 (4.89%)
  Node HS02004817 (3.99%)
  
  
  ***************************
  Time-Step Critical Elements
  ***************************
  Link WS02006252WS02006251 (78.96%)
  Link 3 (14.82%)
  Link WS02006280WS02006229 (1.88%)
  
  
  ********************************
  Highest Flow Instability Indexes
  ********************************
  Link WS02006113WS02006111 (41)
  Link YS02001779YS02001774 (32)
  Link YS02001774YS02001770 (32)
  Link WS02006111WS02006112 (30)
  Link YS02001765YS02001762 (27)
  
  
  *************************
  Routing Time Step Summary
  *************************
  Minimum Time Step           :     0.50 sec
  Average Time Step           :     0.88 sec
  Maximum Time Step           :     5.00 sec
  Percent in Steady State     :    -0.00
  Average Iterations per Step :     4.31
  Percent Not Converging      :    20.84
  
  
  ***************************
  Subcatchment Runoff Summary
  ***************************
  
  ------------------------------------------------------------------------------------------------------------------------------
                            Total      Total      Total      Total     Imperv       Perv      Total       Total     Peak  Runoff
                           Precip      Runon       Evap      Infil     Runoff     Runoff     Runoff      Runoff   Runoff   Coeff
  Subcatchment                 mm         mm         mm         mm         mm         mm         mm    10^6 ltr      LPS
  ------------------------------------------------------------------------------------------------------------------------------
  sub0                       8.06       0.00       0.00       0.56       6.23       0.00       6.23        0.01     2.15   0.773
  sub1                       8.06       0.00       0.00       0.89       5.91       0.00       5.91        0.04    11.80   0.734
  sub2                       8.06       0.00       0.00       2.98       4.17       0.00       4.17        0.04    10.54   0.517
  sub3                       8.06       0.00       0.00       2.98       4.13       0.00       4.13        0.09    21.95   0.513
  sub4                       8.06       0.00       0.00       0.89       5.77       0.00       5.77        0.12    24.90   0.716
  sub5                       8.06       0.00       0.00       0.56       6.18       0.00       6.18        0.07    20.99   0.767
  sub7                       8.06       0.00       0.00       0.72       6.08       0.00       6.08        0.02     7.27   0.754
  sub8                       8.06       0.00       0.00       0.72       6.07       0.00       6.07        0.04    12.92   0.753
  sub9                       8.06       0.00       0.00       0.72       6.06       0.00       6.06        0.03     9.59   0.753
  sub10                      8.06       0.00       0.00       0.64       6.12       0.00       6.12        0.07    20.88   0.760
  sub11                      8.06       0.00       0.00       0.64       6.14       0.00       6.14        0.07    24.25   0.762
  sub12                      8.06       0.00       0.00       1.05       5.82       0.00       5.82        0.05    20.11   0.722
  sub14                      8.06       0.00       0.00       0.72       6.06       0.00       6.06        0.06    18.77   0.753
  sub15                      8.06       0.00       0.00       2.42       4.66       0.00       4.66        0.08    25.52   0.578
  sub16                      8.06       0.00       0.00       2.66       4.48       0.00       4.48        0.05    17.80   0.556
  sub17                      8.06       0.00       0.00       2.58       4.54       0.00       4.54        0.04    14.42   0.564
  sub22                      8.06       0.00       0.00       3.46       3.80       0.00       3.80        0.24    82.82   0.472
  sub23                      8.06       0.00       0.00       2.98       4.20       0.00       4.20        0.20    70.38   0.522
  sub60                      8.06       0.00       0.00       0.97       4.43       0.00       4.43        1.34   135.38   0.550
  sub61                      8.06       0.00       0.00       1.37       4.63       0.00       4.63        1.43   167.06   0.575
  sub62                      8.06       0.00       0.00       0.64       5.00       0.00       5.00        1.54   171.55   0.620
  sub63                      8.06       0.00       0.00       2.34       4.09       0.00       4.09        1.24   154.92   0.508
  sub64                      8.06       0.00       0.00       1.21       4.24       0.00       4.24        1.29   128.75   0.527
  sub65                      8.06       0.00       0.00       1.05       4.30       0.00       4.30        1.32   130.82   0.534
  sub66                      8.06       0.00       0.00       2.34       3.67       0.00       3.67        1.13   117.38   0.456
  sub67                      8.06       0.00       0.00       0.64       5.39       0.00       5.39        1.66   216.94   0.669
  sub68                      8.06       0.00       0.00       1.13       4.90       0.00       4.90        1.51   183.95   0.608
  sub69                      8.06       0.00       0.00       1.21       5.19       0.00       5.19        1.21   179.57   0.644
  sub70                      8.06       5.30       0.00       4.54       6.64       0.00       6.64        1.52   155.14   0.497
  sub71                      8.06       0.00       0.00       0.64       4.82       0.00       4.82        1.14   120.44   0.598
  sub72                      8.06       0.00       0.00       0.56       3.59       0.00       3.59        0.73    59.05   0.445
  sub73                      8.06       6.46       0.00       4.94       6.98       0.00       6.98        1.64   136.02   0.481
  sub74                      8.06       0.00       0.00       6.04       1.56       0.00       1.56        0.62    99.54   0.193
  
  
  ******************
  Node Depth Summary
  ******************
  
  ---------------------------------------------------------------------------------
                                 Average  Maximum  Maximum  Time of Max    Reported
                                   Depth    Depth      HGL   Occurrence   Max Depth
  Node                 Type       Meters   Meters   Meters  days hr:min      Meters
  ---------------------------------------------------------------------------------
  WS02001211           JUNCTION     0.61     0.64     5.47     0  02:35        0.64
  WS02001212           JUNCTION     0.35     0.37     5.44     0  02:34        0.37
  WS02001213           JUNCTION     0.58     0.63     5.40     0  02:33        0.63
  WS02003069           JUNCTION     0.41     0.49     5.07     0  02:32        0.49
  WS02003072           JUNCTION     0.48     0.56     4.93     0  02:33        0.56
  WS02003073           JUNCTION     0.28     0.34     4.40     0  02:33        0.34
  WS02003060           JUNCTION     0.37     0.43     5.37     0  02:31        0.43
  WS02003066           JUNCTION     0.23     0.29     5.84     0  02:29        0.29
  WS02003059           JUNCTION     0.64     0.70     5.39     0  02:32        0.70
  WS02003067           JUNCTION     0.57     0.68     6.00     0  02:29        0.68
  WS02004401           JUNCTION     0.66     0.81     6.81     0  02:26        0.81
  WS02004402           JUNCTION     0.70     0.84     6.80     0  02:25        0.84
  WS02004403           JUNCTION     0.72     0.86     6.79     0  02:25        0.86
  WS02004404           JUNCTION     0.79     0.93     6.78     0  02:25        0.93
  WS02004406           JUNCTION     0.80     0.93     6.76     0  02:25        0.93
  WS02004409           JUNCTION     0.49     0.63     6.40     0  02:28        0.63
  WS02004410           JUNCTION     0.50     0.65     6.37     0  02:28        0.65
  WS02004411           JUNCTION     0.52     0.66     6.34     0  02:29        0.66
  WS02004412           JUNCTION     0.54     0.67     6.31     0  02:29        0.67
  WS02004413           JUNCTION     0.69     0.83     6.30     0  02:29        0.83
  WS02004405           JUNCTION     0.79     0.93     6.78     0  02:25        0.93
  WS02006109           JUNCTION     0.74     0.91     7.53     0  02:21        0.91
  WS02006110           JUNCTION     0.74     0.88     7.47     0  02:22        0.88
  WS02006111           JUNCTION     0.22     0.27     6.98     0  02:22        0.27
  WS02006112           JUNCTION     0.83     1.00     6.89     0  02:25        1.00
  WS02006113           JUNCTION     0.33     0.43     7.32     0  02:22        0.43
  WS02006115           JUNCTION     0.56     0.71     6.85     0  02:25        0.71
  WS02006116           JUNCTION     0.64     0.79     6.83     0  02:25        0.79
  WS02006230           JUNCTION     0.70     0.89     7.64     0  02:21        0.89
  WS02006231           JUNCTION     0.46     0.55     7.67     0  03:10        0.55
  WS02006232           JUNCTION     0.59     0.68     7.72     0  03:11        0.68
  WS02006234           JUNCTION     0.50     0.60     7.76     0  03:11        0.60
  WS02006235           JUNCTION     0.53     0.63     7.79     0  03:12        0.63
  WS02006238           JUNCTION     0.56     0.65     7.80     0  03:12        0.65
  WS02006240           JUNCTION     0.44     0.54     7.84     0  03:12        0.54
  WS02006242           JUNCTION     0.50     0.60     7.87     0  03:13        0.60
  WS02006243           JUNCTION     0.37     0.47     7.89     0  03:13        0.47
  WS02006245           JUNCTION     0.35     0.44     7.93     0  03:13        0.44
  WS02006247           JUNCTION     0.37     0.46     7.96     0  03:12        0.46
  WS02006248           JUNCTION     0.32     0.40     7.98     0  03:12        0.40
  WS02006249           JUNCTION     0.36     0.43     8.03     0  03:12        0.43
  WS02006239           JUNCTION     0.51     0.61     7.82     0  03:12        0.61
  WS02006251           JUNCTION     0.34     0.42     8.09     0  03:09        0.42
  WS02006252           JUNCTION     0.28     0.35     8.59     0  03:00        0.35
  WS02006253           JUNCTION     0.37     0.44     8.09     0  03:07        0.44
  WS02006256           JUNCTION     1.03     1.15     8.09     0  00:00        1.12
  WS02004138           JUNCTION     0.14     0.14     7.39     0  00:20        0.14
  WS02004407           JUNCTION     0.22     0.28     6.60     0  02:26        0.28
  WS02006228           JUNCTION     0.73     0.94     7.59     0  02:21        0.94
  WS02006229           JUNCTION     0.71     0.93     7.62     0  02:21        0.93
  WS02006280           JUNCTION     0.06     0.18     8.45     0  02:15        0.18
  WS02006284           JUNCTION     0.35     0.53     8.93     0  02:14        0.53
  WS02006287           JUNCTION     0.08     0.27     9.22     0  02:14        0.27
  WSF200               JUNCTION     0.22     0.29     5.52     0  02:30        0.29
  HS02004901           JUNCTION     0.11     0.27    10.10     0  02:12        0.27
  HS02004881           JUNCTION     0.01     0.03     9.06     0  02:15        0.03
  HS02004876           JUNCTION     0.04     0.11     9.14     0  02:08        0.11
  HS02004870           JUNCTION     0.01     0.06     9.34     0  02:15        0.06
  HS02004862           JUNCTION     0.02     0.06     9.45     0  02:16        0.06
  HS02004856           JUNCTION     0.08     0.12     9.54     0  02:15        0.12
  HS02004852           JUNCTION     0.01     0.04     9.55     0  02:16        0.04
  HS02004848           JUNCTION     0.01     0.04     9.64     0  02:15        0.04
  HS02004842           JUNCTION     0.33     0.37     9.64     0  02:15        0.37
  HS02004837           JUNCTION     0.03     0.06     9.64     0  02:15        0.06
  HS02004830           JUNCTION     0.04     0.07     9.54     0  02:15        0.07
  HS02004824           JUNCTION     0.02     0.05     9.45     0  02:18        0.05
  HS02004817           JUNCTION     0.43     0.57     9.42     0  02:15        0.57
  HS02004807           JUNCTION     0.12     0.25     9.42     0  02:15        0.25
  HS02004802           JUNCTION     0.15     0.28     9.41     0  02:15        0.28
  HS02004799           JUNCTION     0.11     0.32     9.53     0  02:13        0.32
  HS02004792           JUNCTION     0.03     0.13     9.65     0  02:12        0.13
  HS02004788           JUNCTION     0.02     0.10    10.00     0  02:13        0.10
  HS02004785           JUNCTION     0.04     0.17    10.07     0  02:12        0.17
  HS02004777           JUNCTION     0.14     0.29    10.09     0  02:12        0.29
  HS02004770           JUNCTION     0.11     0.26    10.10     0  02:12        0.26
  HS02004480           JUNCTION     0.07     0.25     9.49     0  02:13        0.25
  HS02004479           JUNCTION     0.10     0.29     9.49     0  02:13        0.29
  HS02004478           JUNCTION     0.05     0.17     9.40     0  02:14        0.17
  YS02001745           JUNCTION     0.66     0.85     8.37     0  03:52        0.85
  YS02001748           JUNCTION     1.05     1.31     8.38     0  03:52        1.29
  YS02001751           JUNCTION     1.23     1.67     8.55     0  02:43        1.50
  YS02001754           JUNCTION     1.49     1.80     8.41     0  03:52        1.78
  YS02001762           JUNCTION     1.68     2.02     8.42     0  03:52        2.00
  YS02001765           JUNCTION     1.63     1.96     8.41     0  03:52        1.95
  YS02001767           JUNCTION     1.60     1.92     8.41     0  03:54        1.90
  YS02001770           JUNCTION     1.59     1.90     8.40     0  03:37        1.88
  YS02001774           JUNCTION     1.66     1.97     8.39     0  03:52        1.95
  YS02001779           JUNCTION     1.41     1.68     8.37     0  03:36        1.68
  YS02001882           JUNCTION     0.34     0.62     7.34     0  02:41        0.62
  YS02001884           JUNCTION     0.44     0.72     7.33     0  02:51        0.72
  YS02001759           JUNCTION     1.71     2.06     8.42     0  03:47        2.04
  YS02001887           JUNCTION     0.51     0.80     7.34     0  02:45        0.80
  YS02001890           JUNCTION     0.54     0.83     7.33     0  02:44        0.83
  YS02001898           JUNCTION     0.31     0.58     7.32     0  02:44        0.58
  YS02001901           JUNCTION     0.43     0.71     7.32     0  02:44        0.71
  YS02001904           JUNCTION     0.41     0.69     7.32     0  02:45        0.68
  YS02001907           JUNCTION     0.74     1.05     7.34     0  02:55        1.03
  YS02001910           JUNCTION     0.53     0.80     7.31     0  02:41        0.80
  YS02001915           JUNCTION     0.33     0.60     7.31     0  02:49        0.59
  YS02001918           JUNCTION     0.11     0.24     7.31     0  02:51        0.24
  YS02001619           JUNCTION     1.20     1.61     8.54     0  03:06        1.59
  YS02001629           JUNCTION     1.55     1.85     8.40     0  03:09        1.83
  YS02001641           JUNCTION     1.65     1.94     8.37     0  03:37        1.93
  YS02001644           JUNCTION     1.66     1.92     8.35     0  03:29        1.92
  YS02001652           JUNCTION     1.50     2.16     8.76     0  02:48        1.86
  YS02001655           JUNCTION     1.26     2.20     9.05     0  02:48        1.65
  YS02001920           JUNCTION     0.21     0.31     7.32     0  02:50        0.31
  YS02001923           JUNCTION     0.08     0.11     7.37     0  03:01        0.11
  YS02001926           JUNCTION     0.17     0.22     7.67     0  03:01        0.22
  YS02001929           JUNCTION     0.08     0.11     7.81     0  03:01        0.11
  YS02001658           JUNCTION     1.00     2.30     9.44     0  03:01        1.43
  YS02001661           JUNCTION     0.77     1.97     9.38     0  03:39        1.30
  YS02001664           JUNCTION     0.33     0.56     8.49     0  03:51        0.56
  YS02001622           JUNCTION     1.22     1.62     8.52     0  03:09        1.60
  YS02001633           JUNCTION     1.64     1.95     8.40     0  03:36        1.92
  YS02001649           JUNCTION     1.69     2.05     8.44     0  03:37        2.03
  YS02001757           JUNCTION     1.81     2.16     8.42     0  03:52        2.14
  YS02001895           JUNCTION     0.31     0.58     7.32     0  02:45        0.57
  YS02001625           JUNCTION     1.50     1.78     8.38     0  03:07        1.78
  YS02163301           JUNCTION     1.58     1.89     8.41     0  03:10        1.86
  YS02163601           JUNCTION     1.69     1.99     8.39     0  03:36        1.97
  YS02164001           JUNCTION     1.63     1.92     8.38     0  03:35        1.91
  YS02001647           JUNCTION     1.49     1.80     8.41     0  03:47        1.78
  YSB1154              JUNCTION     0.24     0.44     9.50     0  02:13        0.44
  YSB6556              JUNCTION     0.14     0.33     9.50     0  02:13        0.33
  YSB1174              JUNCTION     0.20     0.39     9.50     0  02:13        0.39
  YSB1171              JUNCTION     0.39     0.59     9.50     0  02:13        0.59
  YS02006553           JUNCTION     0.74     1.06     7.34     0  02:46        1.04
  YS02006561           JUNCTION     0.17     0.34     7.00     0  02:48        0.33
  YS02006556           JUNCTION     0.71     1.00     7.31     0  02:50        1.00
  YS02006558           JUNCTION     0.76     1.05     7.32     0  02:56        1.03
  YS02001783           JUNCTION     0.34     1.18     7.32     0  02:48        0.90
  YS02001784           JUNCTION     0.38     1.38     7.44     0  02:48        0.92
  YS02001786           JUNCTION     0.35     1.10     7.13     0  02:48        0.87
  YS02001788           JUNCTION     0.31     1.05     7.02     0  02:48        0.86
  YS02001790           JUNCTION     0.43     1.36     7.01     0  02:45        1.12
  YS02001791           JUNCTION     0.42     1.52     6.99     0  02:45        1.20
  YS02001793           JUNCTION     0.60     2.16     7.00     0  02:42        1.79
  WS02004139           JUNCTION     0.55     0.57     5.48     0  02:35        0.57
  WSC                  OUTFALL      0.28     0.34     1.01     0  02:34        0.34
  3                    OUTFALL      0.07     0.13     6.13     0  00:00        0.12
  4                    OUTFALL      0.00     0.00     7.00     0  00:00        0.00
  5                    OUTFALL      0.00     0.00     5.00     0  00:00        0.00
  JK-storage           STORAGE      2.31     5.80     6.60     0  02:47        5.80
  CC-storage           STORAGE      1.07     1.36     8.36     0  03:54        1.36
  XR-storage           STORAGE      7.57     7.72     5.72     0  02:19        7.72
  
  
  *******************
  Node Inflow Summary
  *******************
  
  -------------------------------------------------------------------------------------------------
                                  Maximum  Maximum                  Lateral       Total        Flow
                                  Lateral    Total  Time of Max      Inflow      Inflow     Balance
                                   Inflow   Inflow   Occurrence      Volume      Volume       Error
  Node                 Type           LPS      LPS  days hr:min    10^6 ltr    10^6 ltr     Percent
  -------------------------------------------------------------------------------------------------
  WS02001211           JUNCTION      7.35   198.34     0  02:48       0.207        5.45       0.593
  WS02001212           JUNCTION      0.00   199.15     0  02:48           0        5.42       0.296
  WS02001213           JUNCTION      0.00   199.85     0  02:47           0        5.41       0.385
  WS02003069           JUNCTION      0.32   696.54     0  02:32     0.00902        12.8       0.209
  WS02003072           JUNCTION      0.00   696.53     0  02:32           0        12.8       0.260
  WS02003073           JUNCTION      1.82   698.36     0  02:33      0.0514        12.8       0.289
  WS02003060           JUNCTION     16.53   696.15     0  02:31       0.466        12.8       0.199
  WS02003066           JUNCTION      0.00   487.55     0  02:29           0        7.03       0.062
  WS02003059           JUNCTION      0.00   201.22     0  02:46           0        5.39       0.692
  WS02003067           JUNCTION      0.00   487.52     0  02:29           0        7.04       0.132
  WS02004401           JUNCTION      0.00   492.25     0  02:24           0        7.27       0.292
  WS02004402           JUNCTION      0.00   491.68     0  02:24           0        7.25       0.276
  WS02004403           JUNCTION      0.00   491.32     0  02:25           0        7.23       0.251
  WS02004404           JUNCTION      0.16   491.31     0  02:25     0.00457        7.22       0.190
  WS02004406           JUNCTION      0.00   491.20     0  02:25           0        7.19       0.463
  WS02004409           JUNCTION      0.00   491.11     0  02:26           0        7.14       0.225
  WS02004410           JUNCTION      0.00   489.64     0  02:27           0        7.13       0.254
  WS02004411           JUNCTION      0.00   488.63     0  02:27           0        7.11       0.261
  WS02004412           JUNCTION      0.00   487.98     0  02:28           0        7.09       0.283
  WS02004413           JUNCTION      0.00   487.63     0  02:28           0        7.07       0.420
  WS02004405           JUNCTION      0.04   491.26     0  02:25     0.00107        7.21       0.283
  WS02006109           JUNCTION      1.23   485.78     0  02:21      0.0347        7.36       0.296
  WS02006110           JUNCTION      0.00   485.76     0  02:21           0        7.33       0.267
  WS02006111           JUNCTION      0.00   501.44     0  02:22           0        7.31       0.061
  WS02006112           JUNCTION     14.42   498.07     0  02:22       0.039        7.34       0.394
  WS02006113           JUNCTION      0.00   485.90     0  02:22           0        7.32       0.129
  WS02006115           JUNCTION      0.00   494.96     0  02:23           0        7.31       0.271
  WS02006116           JUNCTION      0.00   493.21     0  02:24           0        7.29       0.258
  WS02006230           JUNCTION     10.28   330.33     0  03:18        0.29        6.12       0.240
  WS02006231           JUNCTION      0.00   319.37     0  03:18           0        5.84       0.148
  WS02006232           JUNCTION      0.00   319.04     0  03:18           0        5.86       0.272
  WS02006234           JUNCTION      0.00   318.63     0  03:18           0        5.86       0.133
  WS02006235           JUNCTION      0.00   318.42     0  03:18           0         5.9       0.179
  WS02006238           JUNCTION      0.00   217.27     0  03:15           0        3.73       0.203
  WS02006240           JUNCTION      0.00   216.69     0  03:14           0        3.72       0.311
  WS02006242           JUNCTION      0.00   216.51     0  03:13           0        3.73       0.378
  WS02006243           JUNCTION      0.00   217.42     0  03:04           0        3.73       0.177
  WS02006245           JUNCTION      0.00   219.69     0  03:04           0        3.73       0.224
  WS02006247           JUNCTION      0.00   221.39     0  03:04           0        3.74       0.181
  WS02006248           JUNCTION      0.00   221.97     0  03:04           0        3.74       0.121
  WS02006249           JUNCTION      0.00   223.35     0  03:02           0        3.75       0.260
  WS02006239           JUNCTION      0.00   216.97     0  03:15           0        3.72       0.303
  WS02006251           JUNCTION      0.08   225.84     0  03:00     0.00217        3.76       0.234
  WS02006252           JUNCTION      0.00   200.00     0  03:00           0        3.54       0.012
  WS02006253           JUNCTION      2.15    66.55     0  02:14     0.00504       0.223       1.722
  WS02006256           JUNCTION      0.00   300.00     0  00:00           0        4.59       0.063
  WS02004138           JUNCTION      0.00   190.00     0  01:30           0        5.27       0.061
  WS02004407           JUNCTION      0.00   491.15     0  02:25           0        7.15       0.102
  WS02006228           JUNCTION      0.00   484.55     0  02:21           0        7.34       0.207
  WS02006229           JUNCTION      0.00   484.53     0  02:21           0        7.35       0.185
  WS02006280           JUNCTION      0.00   330.26     0  02:15           0        1.24       0.005
  WS02006284           JUNCTION      0.10   330.23     0  02:14      0.0027        1.25       0.092
  WS02006287           JUNCTION      0.00   330.08     0  02:14           0        1.24       0.058
  WSF200               JUNCTION      0.00   487.56     0  02:29           0        7.03       0.060
  HS02004901           JUNCTION     17.80    17.80     0  02:08      0.0469       0.047       3.884
  HS02004881           JUNCTION      7.27    64.88     0  02:14      0.0205       0.219       0.124
  HS02004876           JUNCTION     11.80    58.23     0  02:14      0.0393       0.199       0.271
  HS02004870           JUNCTION     12.92    46.63     0  02:14      0.0387       0.159       0.067
  HS02004862           JUNCTION     10.74    34.47     0  02:15      0.0445       0.121       0.142
  HS02004856           JUNCTION      9.59    23.80     0  02:14      0.0291      0.0779       1.884
  HS02004852           JUNCTION      0.00    14.76     0  02:15           0      0.0488       0.108
  HS02004848           JUNCTION     21.95    21.95     0  02:18      0.0929      0.0929       0.047
  HS02004842           JUNCTION      0.00     7.98     0  02:27           0      0.0571      29.452
  HS02004837           JUNCTION     27.23    33.75     0  02:14       0.247       0.291       0.279
  HS02004830           JUNCTION      0.15    33.88     0  02:15     0.00423       0.281       0.441
  HS02004824           JUNCTION     24.95    58.52     0  02:18       0.122       0.401       0.134
  HS02004817           JUNCTION      0.60    59.11     0  02:18      0.0169       0.418       4.156
  HS02004807           JUNCTION     24.25    81.36     0  02:16      0.0712       0.472       0.903
  HS02004802           JUNCTION      0.00    81.95     0  02:17           0       0.468       0.874
  HS02004799           JUNCTION     18.77   212.19     0  02:12      0.0577       0.674       0.342
  HS02004792           JUNCTION     83.10   193.66     0  02:12       0.248       0.617       0.065
  HS02004788           JUNCTION     27.19   112.53     0  02:12       0.127        0.37       0.106
  HS02004785           JUNCTION      0.15    85.61     0  02:12     0.00423       0.245       0.199
  HS02004777           JUNCTION      0.03    85.92     0  02:11    0.000846       0.245       2.162
  HS02004770           JUNCTION     70.38    87.06     0  02:10         0.2       0.246       1.275
  HS02004480           JUNCTION      0.00   250.52     0  02:13           0       0.792       0.098
  HS02004479           JUNCTION      0.00    39.07     0  02:14           0        0.13       0.565
  HS02004478           JUNCTION      0.00   330.06     0  02:14           0        1.24       0.048
  YS02001745           JUNCTION    135.38   300.01     0  03:09        1.34        1.36       0.779
  YS02001748           JUNCTION      0.04   411.65     0  03:09     0.00127        1.35       1.694
  YS02001751           JUNCTION      0.01   412.84     0  02:43     0.00031        1.32       1.803
  YS02001754           JUNCTION      0.26   209.85     0  02:46     0.00733         1.3       1.904
  YS02001762           JUNCTION      0.00   194.90     0  02:51           0        1.46       1.450
  YS02001765           JUNCTION      0.00   191.51     0  02:51           0        1.46       1.676
  YS02001767           JUNCTION      0.54   190.31     0  02:43      0.0151        1.48       2.436
  YS02001770           JUNCTION    171.71   190.11     0  02:24        1.54        1.55       2.033
  YS02001774           JUNCTION      0.00    63.93     0  02:23           0      0.0658      61.391
  YS02001779           JUNCTION      0.01    58.40     0  02:23    0.000141      0.0303      97.394
  YS02001882           JUNCTION      0.00    16.66     0  02:44           0      0.0129      17.335
  YS02001884           JUNCTION      0.00    20.06     0  02:45           0      0.0411      15.033
  YS02001759           JUNCTION    167.10   364.66     0  02:43        1.43        2.86       0.807
  YS02001887           JUNCTION    217.39   238.29     0  02:41        1.68         1.7       0.454
  YS02001890           JUNCTION      0.00   232.78     0  02:41           0        1.66       0.507
  YS02001898           JUNCTION      0.00   235.08     0  02:40           0        1.65       0.161
  YS02001901           JUNCTION      0.00   241.74     0  02:46           0        1.65       0.368
  YS02001904           JUNCTION      0.00   236.72     0  02:41           0        1.65       0.341
  YS02001907           JUNCTION      0.00   446.99     0  02:40           0        3.57       0.632
  YS02001910           JUNCTION      0.00   206.67     0  02:46           0        1.94       0.559
  YS02001915           JUNCTION    120.46   193.86     0  02:52        1.14        1.94       0.266
  YS02001918           JUNCTION      0.00    67.58     0  02:52           0       0.807       0.180
  YS02001619           JUNCTION    117.38   117.38     0  02:55        1.13        1.13       1.066
  YS02001629           JUNCTION      0.00   224.68     0  02:46           0        1.05       2.720
  YS02001641           JUNCTION      0.00   296.18     0  02:58           0        2.28       0.925
  YS02001644           JUNCTION    128.79   424.81     0  02:58        1.29        3.81       0.682
  YS02001652           JUNCTION      0.00   230.48     0  03:00           0        1.19       2.000
  YS02001655           JUNCTION      0.15   383.88     0  02:47     0.00434        1.21       1.964
  YS02001920           JUNCTION      2.87    61.89     0  03:01      0.0809        0.81       0.300
  YS02001923           JUNCTION      0.04    59.02     0  03:01     0.00106       0.729       0.054
  YS02001926           JUNCTION      0.05    59.08     0  03:01     0.00147       0.731       0.372
  YS02001929           JUNCTION     59.05    59.05     0  03:01        0.73        0.73       0.053
  YS02001658           JUNCTION      0.00   573.90     0  03:00           0        1.29       1.542
  YS02001661           JUNCTION      0.00   478.77     0  03:36           0        1.96       0.357
  YS02001664           JUNCTION    154.92   394.55     0  03:35        1.24         1.9       0.259
  YS02001622           JUNCTION      0.00   165.83     0  02:48           0        1.11       2.890
  YS02001633           JUNCTION    131.02   296.31     0  02:58        1.33        2.34       1.377
  YS02001649           JUNCTION      0.00   595.09     0  03:01           0        3.55       1.051
  YS02001757           JUNCTION      0.00  1011.94     0  02:48           0        7.31       1.276
  YS02001895           JUNCTION      0.00   234.55     0  02:49           0        1.65       0.254
  YS02001625           JUNCTION      0.00   225.02     0  02:46           0        1.08       3.721
  YS02163301           JUNCTION      0.00   165.54     0  02:58           0        1.04       2.335
  YS02163601           JUNCTION      0.11   296.27     0  02:58      0.0031        2.29       1.323
  YS02164001           JUNCTION      0.00   296.18     0  02:58           0        2.28       0.875
  YS02001647           JUNCTION      0.00   424.76     0  02:58           0         2.6       1.069
  YSB1154              JUNCTION     20.99    20.99     0  02:12        0.07      0.0712       2.068
  YSB6556              JUNCTION      0.00    21.01     0  02:14           0      0.0721       1.761
  YSB1174              JUNCTION     20.11    20.11     0  02:07      0.0508      0.0517       2.543
  YSB1171              JUNCTION      0.00    38.89     0  02:13           0       0.129       5.137
  YS02006553           JUNCTION      0.00   446.48     0  02:56           0        3.56       0.416
  YS02006561           JUNCTION      0.00   651.03     0  02:51           0        5.04       0.006
  YS02006556           JUNCTION      0.00   430.47     0  02:56           0        3.57       0.299
  YS02006558           JUNCTION    184.83   631.40     0  02:40        1.53        5.07       0.100
  YS02001783           JUNCTION      0.00   624.88     0  02:48           0        5.04       0.038
  YS02001784           JUNCTION      1.06   609.54     0  02:53      0.0299        5.07       0.061
  YS02001786           JUNCTION      0.06   610.86     0  02:53     0.00159        5.07       0.056
  YS02001788           JUNCTION      0.07   619.62     0  02:51       0.002        5.07       0.033
  YS02001790           JUNCTION      0.15   603.20     0  02:45     0.00437        5.07       0.041
  YS02001791           JUNCTION      0.00   599.99     0  02:51           0        5.07       0.019
  YS02001793           JUNCTION      0.00   658.00     0  02:42           0        5.07       0.009
  WS02004139           JUNCTION      0.32   190.33     0  00:20     0.00905        5.28       0.582
  WSC                  OUTFALL       0.00   698.33     0  02:34           0        12.8       0.000
  3                    OUTFALL       0.00   250.55     0  00:00           0        2.38       0.000
  4                    OUTFALL       0.00     0.00     0  00:00           0           0       0.000 ltr
  5                    OUTFALL       0.00     0.00     0  00:00           0           0       0.000 ltr
  JK-storage           STORAGE       0.00   980.56     0  02:41           0        5.22      -0.522
  CC-storage           STORAGE       0.00  1011.91     0  02:59           0        7.12       0.885
  XR-storage           STORAGE     418.12   418.12     0  02:54         7.9         8.5      -0.001
  
  
  **********************
  Node Surcharge Summary
  **********************
  
  Surcharging occurs when water rises above the top of the highest conduit.
  ---------------------------------------------------------------------
                                               Max. Height   Min. Depth
                                   Hours       Above Crown    Below Rim
  Node                 Type      Surcharged         Meters       Meters
  ---------------------------------------------------------------------
  WS02006109           JUNCTION        0.80          0.092        1.728
  WS02006112           JUNCTION        0.04          0.003        1.677
  WS02006228           JUNCTION        0.76          0.107        2.093
  YS02001748           JUNCTION        4.52          0.227        0.963
  YS02001751           JUNCTION        4.90          0.667        0.533
  YS02001754           JUNCTION        5.27          0.750        0.400
  YS02001762           JUNCTION        5.49          1.018        0.132
  YS02001765           JUNCTION        5.47          0.965        0.135
  YS02001767           JUNCTION        5.44          0.919        0.111
  YS02001770           JUNCTION        5.43          0.871        0.049
  YS02001774           JUNCTION        5.49          0.968        0.082
  YS02001779           JUNCTION        5.24          0.680        0.000
  YS02001759           JUNCTION        5.50          1.056        0.154
  YS02001907           JUNCTION        0.22          0.043        0.907
  YS02001619           JUNCTION        4.83          0.610        0.000
  YS02001629           JUNCTION        4.87          0.470        0.000
  YS02001641           JUNCTION        5.47          0.937        0.163
  YS02001644           JUNCTION        5.47          0.920        0.000
  YS02001652           JUNCTION        5.31          1.130        0.000
  YS02001655           JUNCTION        4.93          1.200        0.000
  YS02001658           JUNCTION        4.54          1.300        0.000
  YS02001661           JUNCTION        0.08          0.903        0.487
  YS02001622           JUNCTION        4.93          0.620        0.000
  YS02001633           JUNCTION        5.45          0.927        0.133
  YS02001649           JUNCTION        5.49          1.050        0.000
  YS02001757           JUNCTION        5.54          1.162        0.048
  YS02001625           JUNCTION        5.40          0.780        0.000
  YS02163301           JUNCTION        5.44          0.892        0.138
  YS02163601           JUNCTION        5.48          0.991        0.089
  YS02164001           JUNCTION        5.47          0.921        0.179
  YS02001647           JUNCTION        5.34          0.798        0.102
  YS02006553           JUNCTION        0.45          0.058        1.132
  YS02001783           JUNCTION        0.08          0.379        1.221
  YS02001784           JUNCTION        0.27          0.576        0.914
  YS02001786           JUNCTION        0.10          0.300        1.130
  YS02001788           JUNCTION        0.04          0.248        1.232
  YS02001790           JUNCTION        1.55          0.562        0.595
  YS02001791           JUNCTION        1.68          0.719        1.201
  YS02001793           JUNCTION        1.89          1.165        1.435
  
  
  *********************
  Node Flooding Summary
  *********************
  
  Flooding refers to all water that overflows a node, whether it ponds or not.
  --------------------------------------------------------------------------
                                                             Total   Maximum
                                 Maximum   Time of Max       Flood    Ponded
                        Hours       Rate    Occurrence      Volume     Depth
  Node                 Flooded       LPS   days hr:min    10^6 ltr    Meters
  --------------------------------------------------------------------------
  YS02001779              0.87      9.46      0  03:47       0.006     0.000
  YS02001619              0.01     16.36      0  03:09       0.000     0.000
  YS02001629              0.01     30.00      0  03:10       0.000     0.000
  YS02001644              3.04    420.18      0  03:58       1.448     0.000
  YS02001652              0.01     23.64      0  02:51       0.000     0.000
  YS02001655              0.01    221.51      0  02:49       0.001     0.000
  YS02001658              0.01    146.25      0  03:01       0.000     0.000
  YS02001622              0.01     24.61      0  03:09       0.000     0.000
  YS02001649              0.01     34.25      0  03:39       0.000     0.000
  YS02001625              0.06     14.97      0  03:13       0.001     0.000
  JK-storage              1.23    300.02      0  02:51       0.656     0.000
  XR-storage              5.52    228.12      0  02:54       2.303     0.000
  
  
  **********************
  Storage Volume Summary
  **********************
  
  --------------------------------------------------------------------------------------------------
                         Average     Avg  Evap Exfil       Maximum     Max    Time of Max    Maximum
                          Volume    Pcnt  Pcnt  Pcnt        Volume    Pcnt     Occurrence    Outflow
  Storage Unit           1000 m3    Full  Loss  Loss       1000 m3    Full    days hr:min        LPS
  --------------------------------------------------------------------------------------------------
  JK-storage               0.116      40     0     0         0.291     100       0  02:47     333.33
  CC-storage               2.981      19     0     0         3.785      24       0  03:54     200.00
  XR-storage               0.908      98     0     0         0.926     100       0  02:19     190.00
  
  
  ***********************
  Outfall Loading Summary
  ***********************
  
  -----------------------------------------------------------
                         Flow       Avg       Max       Total
                         Freq      Flow      Flow      Volume
  Outfall Node           Pcnt       LPS       LPS    10^6 ltr
  -----------------------------------------------------------
  WSC                   99.99    524.75    698.33      12.778
  3                     80.54    133.25    250.55       2.382
  4                      0.00      0.00      0.00       0.000
  5                      0.00      0.00      0.00       0.000
  -----------------------------------------------------------
  System                45.13    658.00    876.87      15.160
  
  
  ********************
  Link Flow Summary
  ********************
  
  -----------------------------------------------------------------------------
                                 Maximum  Time of Max   Maximum    Max/    Max/
                                  |Flow|   Occurrence   |Veloc|    Full    Full
  Link                 Type          LPS  days hr:min     m/sec    Flow   Depth
  -----------------------------------------------------------------------------
  WS02003066WSF200     CONDUIT    487.56     0  02:29      2.68    0.08    0.22
  WS02006287WS02006284 CONDUIT    330.13     0  02:14      1.90    0.15    0.27
  WS02006284WS02006280 CONDUIT    330.26     0  02:15      2.14    0.14    0.25
  WS02006280WS02006229 CONDUIT    330.26     0  02:15      3.44    0.07    0.18
  WS02006229WS02006228 CONDUIT    484.55     0  02:21      0.96    1.60    1.00
  WS02006256WS02006235 CONDUIT    166.25     0  00:01      2.58    1.76    1.00
  WS02006253WS02006251 CONDUIT     66.53     0  02:15      0.58    0.20    0.61
  WS02006252WS02006251 CONDUIT    200.34     0  03:00      1.97    0.74    0.76
  WS02006251WS02006249 CONDUIT    223.35     0  03:02      0.94    0.64    0.61
  WS02006249WS02006248 CONDUIT    221.97     0  03:04      1.02    1.22    0.58
  WS02006248WS02006247 CONDUIT    221.39     0  03:04      0.98    0.48    0.60
  WS02006247WS02006245 CONDUIT    219.69     0  03:04      0.93    1.74    0.64
  WS02006245WS02006243 CONDUIT    217.42     0  03:04      0.94    0.64    0.64
  WS02006243WS02006242 CONDUIT    216.51     0  03:13      0.78    0.46    0.74
  WS02006242WS02006240 CONDUIT    216.69     0  03:14      0.70    0.86    0.81
  WS02006240WS02006239 CONDUIT    216.97     0  03:15      0.72    0.68    0.79
  WS02006239WS02006238 CONDUIT    217.27     0  03:15      0.67    0.70    0.89
  WS02006238WS02006235 CONDUIT    217.44     0  03:16      1.25    0.49    0.92
  WS02006235WS02006234 CONDUIT    318.63     0  03:18      0.94    3.36    0.86
  WS02006234WS02006232 CONDUIT    319.04     0  03:18      1.13    0.65    0.92
  WS02006232WS02006231 CONDUIT    319.37     0  03:18      0.94    0.67    0.87
  WS02006231WS02006230 CONDUIT    320.05     0  03:18      1.29    4.85    0.75
  WS02006230WS02006229 CONDUIT    331.46     0  03:18      0.86    7.38    1.00
  WS02006228WS02006109 CONDUIT    484.55     0  02:21      0.96    2.12    1.00
  WS02006116WS02004401 CONDUIT    492.25     0  02:24      0.73    0.68    0.80
  WS02006115WS02006116 CONDUIT    493.21     0  02:24      0.86    0.63    0.72
  WS02006113WS02006111 CONDUIT    501.44     0  02:22      2.37    0.60    0.44
  WS02006112WS02006115 CONDUIT    494.96     0  02:23      0.71    0.29    0.85
  WS02006111WS02006112 CONDUIT    487.79     0  02:22      1.38    0.23    0.66
  WS02006110WS02006113 CONDUIT    485.90     0  02:22      1.17    0.44    0.77
  WS02006109WS02006110 CONDUIT    485.76     0  02:21      0.97    0.93    0.98
  WS02004411WS02004412 CONDUIT    487.98     0  02:28      0.88    0.69    0.66
  WS02004401WS02004402 CONDUIT    491.68     0  02:24      0.77    0.59    0.83
  WS02004413WS02003067 CONDUIT    487.52     0  02:29      1.05    0.21    0.57
  WS02004412WS02004413 CONDUIT    487.63     0  02:28      0.77    0.33    0.75
  WS02004410WS02004411 CONDUIT    488.63     0  02:27      0.90    0.67    0.65
  WS02004409WS02004410 CONDUIT    489.64     0  02:27      0.94    0.63    0.64
  WS02004407WS02004409 CONDUIT    491.11     0  02:26      1.45    0.17    0.46
  WS02004406WS02004407 CONDUIT    491.15     0  02:25      0.99    0.22    0.61
  WS02004405WS02004406 CONDUIT    491.20     0  02:25      0.66    0.97    0.93
  WS02004404WS02004405 CONDUIT    491.22     0  02:25      0.84    4.81    0.93
  WS02004403WS02004404 CONDUIT    491.14     0  02:25      0.74    0.36    0.90
  WS02004402WS02004403 CONDUIT    491.32     0  02:25      0.75    0.71    0.85
  WS02004139WS02001211 CONDUIT    191.00     0  02:48      0.53    0.24    0.46
  WS02004138WS02004139 CONDUIT    190.01     0  00:20      2.39    0.04    0.33
  WS02003067WS02003066 CONDUIT    487.55     0  02:29      1.14    0.16    0.40
  WS02001213WS02003059 CONDUIT    201.22     0  02:46      0.47    0.33    0.66
  WS02001212WS02001213 CONDUIT    199.85     0  02:47      1.03    0.31    0.34
  WS02001211WS02001212 CONDUIT    199.15     0  02:48      0.54    0.15    0.50
  WS02003072WS02003073 CONDUIT    696.53     0  02:33      1.55    1.50    0.42
  WS02003069WS02003072 CONDUIT    696.53     0  02:32      1.47    0.34    0.44
  WS02003060WS02003069 CONDUIT    696.22     0  02:32      1.73    0.27    0.38
  WS02003059WS02003060 CONDUIT    203.07     0  02:46      0.67    0.13    0.57
  HS02004901HS02004770 CONDUIT     16.87     0  02:11      0.06    0.06    0.38
  HS02004876HS02004881 CONDUIT     58.22     0  02:15      0.83    0.62    0.10
  HS02004870HS02004876 CONDUIT     46.60     0  02:15      0.57    0.03    0.12
  HS02004842HS02004848 CONDUIT      7.98     0  02:27      0.04    0.00    0.29
  HS02004837HS02004842 CONDUIT      8.26     0  02:28      0.41    0.00    0.31
  HS02004830HS02004837 CONDUIT     33.73     0  02:15      0.51    0.03    0.09
  HS02004824HS02004830 CONDUIT     33.87     0  02:16      0.55    0.04    0.09
  HS02004817HS02004824 CONDUIT     58.51     0  02:18      0.19    0.03    0.44
  HS02004770HS02004777 CONDUIT     85.89     0  02:11      0.31    0.16    0.40
  HS02004799HS02004480 CONDUIT    211.90     0  02:12      0.75    0.27    0.40
  HS02004792HS02004799 CONDUIT    193.56     0  02:12      0.86    0.12    0.32
  HS02004788HS02004792 CONDUIT    112.45     0  02:13      0.99    0.07    0.16
  HS02004785HS02004788 CONDUIT     85.52     0  02:13      0.65    0.64    0.19
  HS02004777HS02004785 CONDUIT     85.46     0  02:12      0.37    0.11    0.33
  HS02004480HS02004478 CONDUIT    250.52     0  02:13      1.17    1.06    0.31
  HS02004479HS02004480 CONDUIT     39.34     0  02:15      0.16    0.04    0.39
  HS02004862HS02004870 CONDUIT     34.44     0  02:16      0.58    0.04    0.09
  HS02004848HS02004852 CONDUIT     14.76     0  02:15      0.39    0.02    0.05
  HS02004856HS02004862 CONDUIT     23.76     0  02:15      0.43    0.02    0.08
  HS02004852HS02004856 CONDUIT     14.72     0  02:16      0.19    0.02    0.11
  HS02004802HS02004478 CONDUIT     82.62     0  02:18      0.38    0.07    0.32
  HS02004478WS02006287 CONDUIT    330.08     0  02:14      1.60    0.09    0.23
  HS02004817HS02004807 CONDUIT     60.08     0  02:20      0.15    0.04    0.58
  HS02004807HS02004802 CONDUIT     81.95     0  02:17      0.32    0.16    0.37
  YS02001759YS02001757 CONDUIT    366.65     0  02:43      0.47    0.26    1.00
  YS02001762YS02001759 CONDUIT    197.99     0  02:51      0.25    0.23    1.00
  YS02001765YS02001762 CONDUIT    194.90     0  02:51      0.25    0.18    1.00
  YS02001770YS02001767 CONDUIT    189.77     0  02:43      0.31    0.75    1.00
  YS02001774YS02001770 CONDUIT     63.93     0  02:23      0.15    0.04    1.00
  YS02001779YS02001774 CONDUIT     58.40     0  02:23      0.09    0.03    1.00
  YS02001649YS02001757 CONDUIT    595.10     0  03:01      0.76    0.36    1.00
  YS02001767YS02001765 CONDUIT    191.51     0  02:51      0.26    0.24    1.00
  YS02006561YS02001783 CONDUIT    624.88     0  02:48      2.10    0.32    0.71
  YS02001783YS02001784 CONDUIT    608.48     0  02:53      1.54    0.84    1.00
  YS02001784YS02001785 CONDUIT    610.80     0  02:53      1.64    1.42    1.00
  YS02001788YS02001790 CONDUIT    603.04     0  02:45      2.19    0.44    1.00
  YS02001790YS02001791 CONDUIT    599.99     0  02:51      2.60    0.65    1.00
  YS02001791YS02001793 CONDUIT    658.00     0  02:42      5.24    0.28    1.00
  YS02001910YS02001907 CONDUIT    210.35     0  03:01      0.49    0.12    0.90
  YS02001786YS02001788 CONDUIT    619.55     0  02:51      2.11    1.19    1.00
  YS02001915YS02001910 CONDUIT    206.67     0  02:46      0.45    0.10    0.70
  YS02001918YS02001915 CONDUIT     73.42     0  02:52      0.44    0.04    0.42
  YS02001923YS02001920 CONDUIT     59.02     0  03:01      0.56    0.03    0.21
  YS02001926YS02001923 CONDUIT     58.99     0  03:01      0.63    0.08    0.18
  YS02001929YS02001926 CONDUIT     59.02     0  03:01      0.68    0.03    0.17
  YS02001920YS02001918 CONDUIT     67.58     0  02:52      0.56    0.07    0.28
  YS02001629YS02163301 CONDUIT    165.54     0  02:58      0.21    0.20    1.00
  YS02001619YS02001622 CONDUIT    165.83     0  02:48      0.74    0.24    1.00
  YS02001622YS02001625 CONDUIT    225.02     0  02:46      0.31    0.12    1.00
  YS02001625YS02001629 CONDUIT    224.68     0  02:46      0.30    0.11    1.00
  YS02163301YS02001633 CONDUIT    165.32     0  02:58      0.21    0.16    1.00
  YS02163601YS02164001 CONDUIT    296.18     0  02:58      0.38    0.26    1.00
  YS02164001YS02001641 CONDUIT    296.18     0  02:58      0.38    0.40    1.00
  YS02001641YS02001644 CONDUIT    296.03     0  02:58      0.38    0.96    1.00
  YS02001647YS02001649 CONDUIT    424.48     0  02:58      0.54    0.22    1.00
  YS02006553YS02006556 CONDUIT    430.47     0  02:56      0.55    0.37    0.98
  YS02006556YS02006558 CONDUIT    446.71     0  02:40      0.57    0.35    1.00
  YSB6556YSB1171       CONDUIT     21.39     0  02:15      0.08    0.02    0.66
  YS02001907YS02006553 CONDUIT    446.48     0  02:56      0.50    0.53    1.00
  YS02006558YS02006561 CONDUIT    651.03     0  02:51      3.11    1.44    0.73
  YS02001633YS02163601 CONDUIT    296.16     0  02:58      0.38    0.31    1.00
  YS02001644YS02001647 CONDUIT    424.76     0  02:58      0.54    0.25    1.00
  YS02001745YS02001748 CONDUIT    411.61     0  03:09      1.58    0.16    0.93
  YS02001748YS02001751 CONDUIT    412.83     0  02:43      1.22    0.21    1.00
  YS02001751YS02001754 CONDUIT    209.59     0  02:46      1.04    0.10    1.00
  YS02001754YS02001757 CONDUIT    211.44     0  02:46      0.33    0.09    1.00
  YS02001882YS02001884 CONDUIT     16.66     0  02:44      0.06    0.02    0.64
  YS02001884YS02001887 CONDUIT     21.23     0  02:41      0.07    0.03    0.73
  YS02001890YS02001895 CONDUIT    234.55     0  02:49      0.40    0.11    0.70
  YS02001895YS02001898 CONDUIT    235.08     0  02:40      0.53    0.41    0.56
  YS02001898YS02001901 CONDUIT    241.74     0  02:46      0.46    0.16    0.64
  YS02001901YS02001904 CONDUIT    236.72     0  02:41      0.41    0.37    0.69
  YS02001904YS02001907 CONDUIT    246.00     0  02:48      0.35    0.09    0.84
  YS02001887YS02001890 CONDUIT    232.78     0  02:41      0.35    0.40    0.79
  YS02001652YS02001649 CONDUIT    230.98     0  03:00      0.34    0.11    1.00
  YS02001655YS02001652 CONDUIT    230.48     0  03:00      1.10    0.11    1.00
  YS02001658YS02001655 CONDUIT    383.73     0  02:47      1.41    0.16    1.00
  YS02001661YS02001658 CONDUIT    573.90     0  03:00      1.66    0.23    1.00
  YS02001664YS02001661 CONDUIT    478.77     0  03:36      1.44    0.15    0.70
  YSB1154YSB6556       CONDUIT     21.01     0  02:14      0.19    0.04    0.55
  YSB1174YSB1171       CONDUIT     18.73     0  02:10      0.07    0.03    0.66
  YSB1171HS02004479    CONDUIT     39.07     0  02:14      0.54    0.03    0.52
  HS02004881HS02006253 CONDUIT     64.87     0  02:15      2.03    0.01    0.09
  YS02001793JiankangQianchi CONDUIT    980.56     0  02:41     13.02    0.08    1.00
  YS02001757CaochengTiaoxuchi CONDUIT   1011.91     0  02:59      2.08    0.44    1.00
  WSF200WS02003060     CONDUIT    487.51     0  02:29      1.70    0.11    0.30
  1                    CONDUIT    698.33     0  02:34      3.02    0.24    0.34
  2                    CONDUIT      0.00     0  00:00      0.00    0.00    0.00
  3                    CONDUIT    250.55     0  00:00      8.26    0.40    0.46
  4                    CONDUIT      0.00     0  00:00      0.00    0.00    0.00
  CC-Pump-1            PUMP       200.00     0  03:00              1.00
  CC-Pump-2            PUMP         0.00     0  00:00              0.00
  JK-Pump-1            PUMP       300.00     0  00:00              1.00
  JK-Pump-2            PUMP         0.00     0  00:00              0.00
  XR-Pump-1            PUMP        95.00     0  00:00              1.00
  XR-Pump-2            PUMP        95.00     0  01:40              1.00
  XR-Pump-3            PUMP        95.00     0  00:20              1.00
  XR-Pump-4            PUMP        95.00     0  01:40              1.00
  
  
  ***************************
  Flow Classification Summary
  ***************************
  
  -------------------------------------------------------------------------------------
                      Adjusted    ---------- Fraction of Time in Flow Class ---------- 
                       /Actual         Up    Down  Sub   Sup   Up    Down  Norm  Inlet 
  Conduit               Length    Dry  Dry   Dry   Crit  Crit  Crit  Crit  Ltd   Ctrl  
  -------------------------------------------------------------------------------------
  WS02003066WSF200        1.00   0.06  0.00  0.00  0.00  0.94  0.00  0.00  0.73  0.00
  WS02006287WS02006284    1.00   0.04  0.01  0.00  0.67  0.27  0.00  0.00  0.75  0.00
  WS02006284WS02006280    1.00   0.05  0.00  0.00  0.00  0.00  0.00  0.95  0.00  0.00
  WS02006280WS02006229    1.00   0.05  0.00  0.00  0.00  0.00  0.00  0.95  0.00  0.00
  WS02006229WS02006228    1.00   0.00  0.00  0.00  0.99  0.00  0.00  0.01  0.00  0.00
  WS02006256WS02006235    1.00   0.00  0.00  0.00  1.00  0.00  0.00  0.00  0.00  0.00
  WS02006253WS02006251    1.00   0.03  0.01  0.00  0.96  0.00  0.00  0.00  0.00  0.00
  WS02006252WS02006251    1.00   0.18  0.00  0.00  0.00  0.00  0.82  0.00  0.00  0.00
  WS02006251WS02006249    1.00   0.00  0.00  0.00  1.00  0.00  0.00  0.00  0.25  0.00
  WS02006249WS02006248    1.00   0.00  0.02  0.00  0.90  0.00  0.08  0.00  0.00  0.00
  WS02006248WS02006247    1.00   0.02  0.00  0.00  0.97  0.00  0.00  0.00  0.16  0.00
  WS02006247WS02006245    1.00   0.02  0.00  0.00  0.98  0.00  0.00  0.00  0.00  0.00
  WS02006245WS02006243    1.00   0.01  0.00  0.00  0.94  0.00  0.00  0.04  0.01  0.00
  WS02006243WS02006242    1.00   0.01  0.00  0.00  0.99  0.00  0.00  0.00  0.25  0.00
  WS02006242WS02006240    1.00   0.00  0.00  0.00  1.00  0.00  0.00  0.00  0.00  0.00
  WS02006240WS02006239    1.00   0.00  0.00  0.00  0.95  0.00  0.00  0.04  0.01  0.00
  WS02006239WS02006238    1.00   0.00  0.00  0.00  1.00  0.00  0.00  0.00  0.01  0.00
  WS02006238WS02006235    1.00   0.00  0.00  0.00  1.00  0.00  0.00  0.00  0.00  0.00
  WS02006235WS02006234    1.00   0.00  0.00  0.00  0.95  0.00  0.05  0.00  0.00  0.00
  WS02006234WS02006232    1.00   0.00  0.00  0.00  1.00  0.00  0.00  0.00  0.15  0.00
  WS02006232WS02006231    1.00   0.00  0.00  0.00  0.99  0.00  0.00  0.00  0.00  0.00
  WS02006231WS02006230    1.00   0.00  0.00  0.00  0.41  0.00  0.59  0.00  0.00  0.00
  WS02006230WS02006229    1.00   0.00  0.00  0.00  0.98  0.00  0.00  0.02  0.01  0.00
  WS02006228WS02006109    1.00   0.00  0.00  0.00  1.00  0.00  0.00  0.00  0.00  0.00
  WS02006116WS02004401    1.00   0.03  0.00  0.00  0.97  0.00  0.00  0.00  0.00  0.00
  WS02006115WS02006116    1.00   0.03  0.00  0.00  0.97  0.00  0.00  0.01  0.00  0.00
  WS02006113WS02006111    1.00   0.02  0.00  0.00  0.00  0.98  0.00  0.00  0.11  0.00
  WS02006112WS02006115    1.00   0.02  0.00  0.00  0.97  0.00  0.00  0.00  0.00  0.00
  WS02006111WS02006112    1.00   0.02  0.00  0.00  0.97  0.00  0.00  0.00  0.98  0.00
  WS02006110WS02006113    1.00   0.01  0.01  0.00  0.98  0.00  0.00  0.00  0.00  0.00
  WS02006109WS02006110    1.00   0.00  0.01  0.00  0.98  0.00  0.01  0.00  0.00  0.00
  WS02004411WS02004412    1.00   0.04  0.00  0.00  0.96  0.00  0.00  0.00  0.00  0.00
  WS02004401WS02004402    1.00   0.03  0.00  0.00  0.97  0.00  0.00  0.00  0.00  0.00
  WS02004413WS02003067    1.00   0.04  0.01  0.00  0.00  0.00  0.94  0.00  0.00  0.00
  WS02004412WS02004413    1.00   0.04  0.00  0.00  0.96  0.00  0.00  0.00  0.03  0.00
  WS02004410WS02004411    1.00   0.04  0.00  0.00  0.96  0.00  0.00  0.00  0.04  0.00
  WS02004409WS02004410    1.00   0.04  0.00  0.00  0.96  0.00  0.00  0.00  0.04  0.00
  WS02004407WS02004409    1.00   0.04  0.00  0.00  0.96  0.00  0.00  0.00  0.89  0.00
  WS02004406WS02004407    1.00   0.00  0.04  0.00  0.96  0.00  0.00  0.00  0.00  0.00
  WS02004405WS02004406    1.00   0.00  0.00  0.00  1.00  0.00  0.00  0.00  0.00  0.00
  WS02004404WS02004405    1.00   0.00  0.00  0.00  1.00  0.00  0.00  0.00  0.00  0.00
  WS02004403WS02004404    1.00   0.00  0.03  0.00  0.97  0.00  0.00  0.00  0.01  0.00
  WS02004402WS02004403    1.00   0.03  0.00  0.00  0.97  0.00  0.00  0.00  0.00  0.00
  WS02004139WS02001211    1.00   0.00  0.00  0.00  0.99  0.00  0.01  0.00  0.00  0.00
  WS02004138WS02004139    1.00   0.00  0.00  0.00  0.99  0.01  0.00  0.00  1.00  0.00
  WS02003067WS02003066    1.00   0.06  0.00  0.00  0.94  0.00  0.00  0.00  0.00  0.00
  WS02001213WS02003059    1.00   0.00  0.01  0.00  0.99  0.00  0.00  0.00  0.00  0.00
  WS02001212WS02001213    1.00   0.01  0.00  0.00  0.90  0.00  0.09  0.00  0.00  0.00
  WS02001211WS02001212    1.00   0.00  0.01  0.00  0.99  0.00  0.00  0.00  0.00  0.00
  WS02003072WS02003073    1.00   0.00  0.00  0.00  0.00  0.00  0.00  1.00  0.00  0.00
  WS02003069WS02003072    1.00   0.00  0.00  0.00  0.99  0.01  0.00  0.00  0.27  0.00
  WS02003060WS02003069    1.00   0.00  0.00  0.00  0.99  0.01  0.00  0.00  0.21  0.00
  WS02003059WS02003060    1.00   0.00  0.00  0.00  1.00  0.00  0.00  0.00  0.02  0.00
  HS02004901HS02004770    1.00   0.04  0.00  0.00  0.95  0.00  0.00  0.00  0.02  0.00
  HS02004876HS02004881    1.00   0.02  0.00  0.00  0.96  0.02  0.00  0.00  0.00  0.00
  HS02004870HS02004876    1.00   0.01  0.00  0.00  0.99  0.00  0.00  0.00  0.95  0.00
  HS02004842HS02004848    1.00   0.00  0.05  0.00  0.95  0.00  0.00  0.00  0.66  0.00
  HS02004837HS02004842    1.00   0.00  0.00  0.00  0.99  0.01  0.00  0.00  0.11  0.00
  HS02004830HS02004837    1.00   0.00  0.00  0.00  1.00  0.00  0.00  0.00  0.99  0.00
  HS02004824HS02004830    1.00   0.00  0.00  0.00  1.00  0.00  0.00  0.00  0.00  0.00
  HS02004817HS02004824    1.00   0.00  0.00  0.00  1.00  0.00  0.00  0.00  1.00  0.00
  HS02004770HS02004777    1.00   0.00  0.05  0.00  0.95  0.00  0.00  0.00  0.06  0.00
  HS02004799HS02004480    1.00   0.00  0.03  0.00  0.94  0.00  0.03  0.00  0.00  0.00
  HS02004792HS02004799    1.00   0.00  0.00  0.00  0.99  0.01  0.00  0.00  0.98  0.00
  HS02004788HS02004792    1.00   0.00  0.00  0.00  0.99  0.01  0.00  0.00  0.98  0.00
  HS02004785HS02004788    1.00   0.00  0.00  0.00  1.00  0.00  0.00  0.00  0.00  0.00
  HS02004777HS02004785    1.00   0.00  0.00  0.00  1.00  0.00  0.00  0.00  0.19  0.00
  HS02004480HS02004478    1.00   0.05  0.00  0.00  0.73  0.00  0.00  0.22  0.00  0.00
  HS02004479HS02004480    1.00   0.03  0.00  0.00  0.97  0.00  0.00  0.00  0.15  0.00
  HS02004862HS02004870    1.00   0.00  0.00  0.00  1.00  0.00  0.00  0.00  0.06  0.00
  HS02004848HS02004852    1.00   0.05  0.00  0.00  0.95  0.00  0.00  0.00  0.71  0.00
  HS02004856HS02004862    1.00   0.00  0.07  0.00  0.93  0.00  0.00  0.00  0.75  0.00
  HS02004852HS02004856    1.00   0.05  0.01  0.00  0.95  0.00  0.00  0.00  0.83  0.00
  HS02004802HS02004478    1.00   0.05  0.00  0.00  0.95  0.00  0.00  0.00  0.01  0.00
  HS02004478WS02006287    1.00   0.06  0.00  0.00  0.82  0.13  0.00  0.00  0.72  0.00
  HS02004817HS02004807    1.00   0.00  0.05  0.00  0.95  0.00  0.00  0.00  0.00  0.00
  HS02004807HS02004802    1.00   0.05  0.00  0.00  0.95  0.00  0.00  0.00  0.01  0.00
  YS02001759YS02001757    1.00   0.00  0.00  0.00  1.00  0.00  0.00  0.00  0.17  0.00
  YS02001762YS02001759    1.00   0.00  0.00  0.00  1.00  0.00  0.00  0.00  0.04  0.00
  YS02001765YS02001762    1.00   0.00  0.00  0.00  1.00  0.00  0.00  0.00  0.21  0.00
  YS02001770YS02001767    1.00   0.00  0.00  0.00  1.00  0.00  0.00  0.00  0.00  0.00
  YS02001774YS02001770    1.00   0.00  0.05  0.00  0.95  0.00  0.00  0.00  0.06  0.00
  YS02001779YS02001774    1.00   0.00  0.00  0.00  1.00  0.00  0.00  0.00  0.25  0.00
  YS02001649YS02001757    1.00   0.00  0.00  0.00  1.00  0.00  0.00  0.00  0.19  0.00
  YS02001767YS02001765    1.00   0.00  0.00  0.00  1.00  0.00  0.00  0.00  0.01  0.00
  YS02006561YS02001783    1.00   0.07  0.00  0.00  0.25  0.68  0.00  0.00  0.66  0.00
  YS02001783YS02001784    1.00   0.00  0.07  0.00  0.93  0.00  0.00  0.00  0.00  0.00
  YS02001784YS02001785    1.00   0.00  0.00  0.00  1.00  0.00  0.00  0.00  0.24  0.00
  YS02001788YS02001790    1.00   0.00  0.00  0.00  0.37  0.63  0.00  0.00  0.66  0.00
  YS02001790YS02001791    1.00   0.00  0.00  0.00  0.33  0.67  0.00  0.00  0.44  0.00
  YS02001791YS02001793    1.00   0.00  0.00  0.00  0.34  0.66  0.00  0.00  0.02  0.00
  YS02001910YS02001907    1.00   0.00  0.00  0.00  0.97  0.00  0.00  0.03  0.13  0.00
  YS02001786YS02001788    1.00   0.00  0.00  0.00  0.34  0.66  0.00  0.00  0.00  0.00
  YS02001915YS02001910    1.00   0.00  0.00  0.00  0.99  0.01  0.00  0.00  0.23  0.00
  YS02001918YS02001915    1.00   0.00  0.01  0.00  0.98  0.01  0.00  0.00  0.65  0.00
  YS02001923YS02001920    1.00   0.00  0.00  0.00  1.00  0.00  0.00  0.00  1.00  0.00
  YS02001926YS02001923    1.00   0.00  0.03  0.00  0.00  0.00  0.97  0.00  0.00  0.00
  YS02001929YS02001926    1.00   0.00  0.05  0.00  0.95  0.00  0.00  0.00  0.87  0.00
  YS02001920YS02001918    1.00   0.00  0.01  0.00  0.99  0.00  0.00  0.00  0.00  0.00
  YS02001629YS02163301    1.00   0.06  0.00  0.00  0.94  0.00  0.00  0.00  0.00  0.00
  YS02001619YS02001622    1.00   0.04  0.00  0.00  0.96  0.00  0.00  0.00  0.00  0.00
  YS02001622YS02001625    1.00   0.05  0.00  0.00  0.95  0.00  0.00  0.00  0.12  0.00
  YS02001625YS02001629    1.00   0.05  0.02  0.00  0.92  0.00  0.01  0.00  0.00  0.00
  YS02163301YS02001633    1.00   0.00  0.06  0.00  0.94  0.00  0.00  0.00  0.00  0.00
  YS02163601YS02164001    1.00   0.00  0.04  0.00  0.96  0.00  0.00  0.00  0.00  0.00
  YS02164001YS02001641    1.00   0.01  0.03  0.00  0.96  0.00  0.00  0.00  0.07  0.00
  YS02001641YS02001644    1.00   0.00  0.01  0.00  0.99  0.00  0.00  0.00  0.00  0.00
  YS02001647YS02001649    1.00   0.00  0.07  0.00  0.93  0.00  0.00  0.00  0.01  0.00
  YS02006553YS02006556    1.00   0.01  0.00  0.00  0.99  0.00  0.00  0.00  0.03  0.00
  YS02006556YS02006558    1.00   0.00  0.00  0.00  1.00  0.00  0.00  0.00  0.00  0.00
  YSB6556YSB1171          1.00   0.03  0.02  0.00  0.96  0.00  0.00  0.00  0.00  0.00
  YS02001907YS02006553    1.00   0.00  0.02  0.00  0.97  0.00  0.00  0.00  0.00  0.00
  YS02006558YS02006561    1.00   0.07  0.00  0.00  0.00  0.93  0.00  0.00  0.57  0.00
  YS02001633YS02163601    1.00   0.00  0.01  0.00  0.99  0.00  0.00  0.00  0.19  0.00
  YS02001644YS02001647    1.00   0.00  0.07  0.00  0.93  0.00  0.00  0.00  0.00  0.00
  YS02001745YS02001748    1.00   0.00  0.00  0.00  0.90  0.00  0.00  0.10  0.04  0.00
  YS02001748YS02001751    1.00   0.00  0.00  0.00  0.98  0.02  0.00  0.00  0.22  0.00
  YS02001751YS02001754    1.00   0.00  0.00  0.00  0.93  0.00  0.00  0.07  0.01  0.00
  YS02001754YS02001757    1.00   0.00  0.00  0.00  0.99  0.01  0.00  0.00  0.25  0.00
  YS02001882YS02001884    1.00   0.06  0.00  0.00  0.94  0.00  0.00  0.00  0.00  0.00
  YS02001884YS02001887    1.00   0.03  0.01  0.00  0.96  0.00  0.00  0.00  0.00  0.00
  YS02001890YS02001895    1.00   0.00  0.06  0.00  0.94  0.00  0.00  0.00  0.00  0.00
  YS02001895YS02001898    1.00   0.06  0.00  0.00  0.93  0.00  0.01  0.00  0.00  0.00
  YS02001898YS02001901    1.00   0.06  0.00  0.00  0.94  0.00  0.00  0.00  0.02  0.00
  YS02001901YS02001904    1.00   0.06  0.00  0.00  0.94  0.00  0.00  0.00  0.00  0.00
  YS02001904YS02001907    1.00   0.00  0.06  0.00  0.94  0.00  0.00  0.00  0.00  0.00
  YS02001887YS02001890    1.00   0.00  0.00  0.00  0.97  0.00  0.02  0.00  0.00  0.00
  YS02001652YS02001649    1.00   0.00  0.00  0.00  1.00  0.00  0.00  0.00  0.25  0.00
  YS02001655YS02001652    1.00   0.00  0.00  0.00  0.93  0.00  0.00  0.07  0.01  0.00
  YS02001658YS02001655    1.00   0.00  0.05  0.00  0.92  0.03  0.00  0.00  0.07  0.00
  YS02001661YS02001658    1.00   0.05  0.00  0.00  0.90  0.05  0.00  0.00  0.05  0.00
  YS02001664YS02001661    1.00   0.04  0.00  0.00  0.88  0.08  0.00  0.00  0.27  0.00
  YSB1154YSB6556          1.00   0.04  0.00  0.00  0.96  0.00  0.00  0.00  0.02  0.00
  YSB1174YSB1171          1.00   0.03  0.01  0.00  0.96  0.00  0.00  0.00  0.00  0.00
  YSB1171HS02004479       1.00   0.03  0.00  0.00  0.97  0.00  0.00  0.00  0.13  0.00
  HS02004881HS02006253    1.00   0.03  0.00  0.00  0.79  0.01  0.00  0.17  0.62  0.00
  YS02001793JiankangQianchi    1.00   0.00  0.00  0.00  0.50  0.49  0.00  0.00  0.14  0.00
  YS02001757CaochengTiaoxuchi    1.00   0.00  0.08  0.00  0.92  0.00  0.00  0.00  0.00  0.00
  WSF200WS02003060        1.00   0.00  0.06  0.00  0.71  0.23  0.00  0.00  0.06  0.00
  1                       1.00   0.00  0.00  0.00  0.00  1.00  0.00  0.00  0.56  0.00
  2                       1.00   1.00  0.00  0.00  0.00  0.00  0.00  0.00  0.00  0.00
  3                       1.00   0.19  0.00  0.00  0.00  0.81  0.00  0.00  0.26  0.00
  4                       1.00   1.00  0.00  0.00  0.00  0.00  0.00  0.00  0.00  0.00
  
  
  *************************
  Conduit Surcharge Summary
  *************************
  
  ----------------------------------------------------------------------------
                                                           Hours        Hours 
                         --------- Hours Full --------   Above Full   Capacity
  Conduit                Both Ends  Upstream  Dnstream   Normal Flow   Limited
  ----------------------------------------------------------------------------
  WS02006229WS02006228        0.76      0.84      0.76      5.23         0.76
  WS02006256WS02006235        5.79      5.79      6.40      4.45         0.01
  WS02006249WS02006248        0.01      0.01      0.01      4.85         0.01
  WS02006247WS02006245        0.01      0.01      0.01      4.88         0.01
  WS02006235WS02006234        0.01      0.01      0.01      5.81         0.01
  WS02006231WS02006230        0.01      0.01      0.01      5.80         0.01
  WS02006230WS02006229        1.48      3.99      1.48      5.88         1.48
  WS02006228WS02006109        0.80      1.08      0.80      5.69         0.80
  WS02006112WS02006115        0.01      0.01      0.04      0.01         0.01
  WS02006111WS02006112        0.01      0.01      5.62      0.01         0.01
  WS02006110WS02006113        0.01      0.01      0.94      0.01         0.01
  WS02006109WS02006110        0.01      0.01      1.08      0.01         0.01
  WS02004404WS02004405        0.01      0.01      0.01      5.70         0.01
  WS02003072WS02003073        0.01      0.01      0.01      5.49         0.01
  HS02004480HS02004478        0.01      0.01      0.01      0.14         0.01
  YS02001759YS02001757        5.50      5.50      5.54      0.01         0.01
  YS02001762YS02001759        5.49      5.49      5.50      0.01         0.01
  YS02001765YS02001762        5.47      5.47      5.49      0.01         0.01
  YS02001770YS02001767        5.44      5.45      5.44      0.01         0.57
  YS02001774YS02001770        5.43      5.43      5.49      0.01         0.01
  YS02001779YS02001774        5.24      5.24      5.49      0.01         0.01
  YS02001649YS02001757        5.49      5.49      5.54      0.01         0.01
  YS02001767YS02001765        5.44      5.44      5.47      0.01         0.01
  YS02006561YS02001783        0.01      0.01      0.08      0.01         0.01
  YS02001783YS02001784        0.08      0.08      0.27      0.01         0.01
  YS02001784YS02001785        0.10      0.27      0.10      1.10         0.09
  YS02001788YS02001790        0.04      0.04      1.55      0.01         0.01
  YS02001790YS02001791        1.55      1.55      1.68      0.01         0.01
  YS02001791YS02001793        1.68      1.68      1.96      0.01         0.01
  YS02001910YS02001907        0.01      0.01      0.22      0.01         0.01
  YS02001786YS02001788        0.04      0.10      0.04      0.67         0.03
  YS02001629YS02163301        5.44      5.44      5.44      0.01         0.01
  YS02001619YS02001622        4.83      4.83      4.93      0.01         0.02
  YS02001622YS02001625        4.93      4.93      5.40      0.01         0.01
  YS02001625YS02001629        4.87      4.87      5.40      0.01         0.01
  YS02163301YS02001633        5.44      5.44      5.47      0.01         0.01
  YS02163601YS02164001        5.47      5.47      5.48      0.01         0.01
  YS02164001YS02001641        5.47      5.47      5.47      0.01         0.03
  YS02001641YS02001644        5.47      5.47      5.47      0.01         0.73
  YS02001647YS02001649        5.34      5.34      5.49      0.01         0.01
  YS02006553YS02006556        0.01      0.01      0.45      0.01         0.01
  YS02006556YS02006558        0.01      0.01      0.63      0.01         0.01
  YS02001907YS02006553        1.12      1.12      1.31      0.01         0.01
  YS02006558YS02006561        0.01      0.01      0.01      0.97         0.01
  YS02001633YS02163601        5.45      5.45      5.48      0.01         0.01
  YS02001644YS02001647        5.34      5.34      5.47      0.01         0.01
  YS02001745YS02001748        0.01      0.01      4.52      0.01         0.01
  YS02001748YS02001751        4.64      4.64      4.90      0.01         0.01
  YS02001751YS02001754        4.90      4.90      5.27      0.01         0.01
  YS02001754YS02001757        5.33      5.33      5.54      0.01         0.01
  YS02001904YS02001907        0.01      0.01      0.55      0.01         0.01
  YS02001652YS02001649        5.37      5.37      5.49      0.01         0.01
  YS02001655YS02001652        4.93      4.93      5.31      0.01         0.01
  YS02001658YS02001655        4.54      4.54      4.93      0.01         0.01
  YS02001661YS02001658        0.07      0.07      4.54      0.01         0.01
  YS02001664YS02001661        0.01      0.01      0.73      0.01         0.01
  YS02001793JiankangQianchi        1.89      1.89      2.93      0.01         0.01
  YS02001757CaochengTiaoxuchi        4.59      4.59      5.54      0.01         0.01
  
  
  ***************
  Pumping Summary
  ***************
  
  ---------------------------------------------------------------------------------------------------------
                                                  Min       Avg       Max     Total     Power    % Time Off
                        Percent   Number of      Flow      Flow      Flow    Volume     Usage    Pump Curve
  Pump                 Utilized   Start-Ups       LPS       LPS       LPS  10^6 ltr     Kw-hr    Low   High
  ---------------------------------------------------------------------------------------------------------
  CC-Pump-1               63.83           1      0.00    196.75    200.00     3.540      2.93    0.0    0.0
  CC-Pump-2                0.00           0      0.00      0.00      0.00     0.000      0.00    0.0    0.0
  JK-Pump-1              100.00           1      0.00    205.34    300.00     4.586     48.53    0.0    0.0
  JK-Pump-2                0.00           0      0.00      0.00      0.00     0.000      0.00    0.0    0.0
  XR-Pump-1               34.04           2      0.00     85.79     95.00     0.827      6.56    0.0    0.0
  XR-Pump-2               72.32           2      0.00     92.74     95.00     1.852      9.04    0.0    0.0
  XR-Pump-3               31.91           2      0.00     83.13     95.00     0.741      5.64    0.0    0.0
  XR-Pump-4               72.32           2      0.00     92.74     95.00     1.852      9.04    0.0    0.0
  

  Analysis begun on:  Thu Jan  6 02:29:57 2022
  Analysis ended on:  Thu Jan  6 02:30:01 2022
  Total elapsed time: 00:00:04