
  EPA STORM WATER MANAGEMENT MODEL - VERSION 5.1 (Build 5.3.0.dev0)
  --------------------------------------------------------------

  WARNING 04: minimum elevation drop used for Conduit WS02004404WS02004405
  WARNING 03: negative offset ignored for Link YS02001904YS02001907
  
  *********************************************************
  NOTE: The summary statistics displayed in this report are
  based on results found at every computational time step,  
  not just on results from each reporting time step.
  *********************************************************
  
  ****************
  Analysis Options
  ****************
  Flow Units ............... LPS
  Process Models:
    Rainfall/Runoff ........ YES
    RDII ................... NO
    Snowmelt ............... NO
    Groundwater ............ NO
    Flow Routing ........... YES
    Ponding Allowed ........ NO
    Water Quality .......... NO
  Infiltration Method ...... HORTON
  Flow Routing Method ...... DYNWAVE
  Surcharge Method ......... EXTRAN
  Starting Date ............ 08/28/2015 08:00:00
  Ending Date .............. 08/28/2015 15:50:00
  Antecedent Dry Days ...... 8.0
  Report Time Step ......... 00:01:00
  Wet Time Step ............ 00:01:00
  Dry Time Step ............ 00:01:00
  Routing Time Step ........ 5.00 sec
  Variable Time Step ....... YES
  Maximum Trials ........... 8
  Number of Threads ........ 4
  Head Tolerance ........... 0.001500 m
  
  
  **************************        Volume         Depth
  Runoff Quantity Continuity     hectare-m            mm
  **************************     ---------       -------
  Total Precipitation ......         2.813         6.158
  Evaporation Loss .........         0.000         0.000
  Infiltration Loss ........         0.708         1.549
  Surface Runoff ...........         1.211         2.652
  Final Storage ............         0.894         1.957
  Continuity Error (%) .....        -0.018
  
  
  **************************        Volume        Volume
  Flow Routing Continuity        hectare-m      10^6 ltr
  **************************     ---------     ---------
  Dry Weather Inflow .......         0.616         6.165
  Wet Weather Inflow .......         1.211        12.107
  Groundwater Inflow .......         0.000         0.000
  RDII Inflow ..............         0.000         0.000
  External Inflow ..........         0.102         1.024
  External Outflow .........         1.414        14.140
  Flooding Loss ............         0.149         1.490
  Evaporation Loss .........         0.000         0.000
  Exfiltration Loss ........         0.000         0.000
  Initial Stored Volume ....         0.076         0.761
  Final Stored Volume ......         0.448         4.478
  Continuity Error (%) .....        -0.258
  
  
  *************************
  Highest Continuity Errors
  *************************
  Node HS02004842 (27.70%)
  Node YS02001884 (21.90%)
  Node YS02001774 (16.58%)
  Node YSB1171 (6.63%)
  Node HS02004901 (5.21%)
  
  
  ***************************
  Time-Step Critical Elements
  ***************************
  Link WS02006252WS02006251 (82.06%)
  Link 3 (12.11%)
  Link WS02006280WS02006229 (2.01%)
  
  
  ********************************
  Highest Flow Instability Indexes
  ********************************
  Link WS02006113WS02006111 (42)
  Link WS02006111WS02006112 (32)
  Link YS02006558YS02006561 (14)
  Link YS02001629YS02163301 (11)
  Link YS02164001YS02001641 (10)
  
  
  *************************
  Routing Time Step Summary
  *************************
  Minimum Time Step           :     0.09 sec
  Average Time Step           :     0.89 sec
  Maximum Time Step           :     5.00 sec
  Percent in Steady State     :    -0.00
  Average Iterations per Step :     3.11
  Percent Not Converging      :    13.10
  
  
  ***************************
  Subcatchment Runoff Summary
  ***************************
  
  ------------------------------------------------------------------------------------------------------------------------------
                            Total      Total      Total      Total     Imperv       Perv      Total       Total     Peak  Runoff
                           Precip      Runon       Evap      Infil     Runoff     Runoff     Runoff      Runoff   Runoff   Coeff
  Subcatchment                 mm         mm         mm         mm         mm         mm         mm    10^6 ltr      LPS
  ------------------------------------------------------------------------------------------------------------------------------
  sub0                       6.16       0.00       0.00       0.43       4.46       0.00       4.46        0.00     1.63   0.725
  sub1                       6.16       0.00       0.00       0.68       4.23       0.00       4.23        0.03     8.33   0.686
  sub2                       6.16       0.00       0.00       2.28       2.97       0.00       2.97        0.03     7.33   0.483
  sub3                       6.16       0.00       0.00       2.28       2.94       0.00       2.94        0.07    14.99   0.477
  sub4                       6.16       0.00       0.00       0.68       4.09       0.00       4.09        0.09    16.74   0.664
  sub5                       6.16       0.00       0.00       0.43       4.42       0.00       4.42        0.05    14.82   0.717
  sub7                       6.16       0.00       0.00       0.55       4.35       0.00       4.35        0.01     5.28   0.706
  sub8                       6.16       0.00       0.00       0.55       4.34       0.00       4.34        0.03     9.28   0.705
  sub9                       6.16       0.00       0.00       0.55       4.34       0.00       4.34        0.02     6.88   0.704
  sub10                      6.16       0.00       0.00       0.49       4.37       0.00       4.37        0.05    14.82   0.710
  sub11                      6.16       0.00       0.00       0.49       4.39       0.00       4.39        0.05    17.48   0.713
  sub12                      6.16       0.00       0.00       0.80       4.17       0.00       4.17        0.04    14.98   0.677
  sub14                      6.16       0.00       0.00       0.55       4.34       0.00       4.34        0.04    13.43   0.704
  sub15                      6.16       0.00       0.00       1.85       3.33       0.00       3.33        0.06    18.19   0.541
  sub16                      6.16       0.00       0.00       2.03       3.21       0.00       3.21        0.03    13.11   0.521
  sub17                      6.16       0.00       0.00       1.97       3.25       0.00       3.25        0.03    10.58   0.528
  sub22                      6.16       0.00       0.00       2.65       2.72       0.00       2.72        0.17    59.90   0.442
  sub23                      6.16       0.00       0.00       2.28       3.01       0.00       3.01        0.14    51.08   0.489
  sub60                      6.16       0.00       0.00       0.74       2.96       0.00       2.96        0.90    83.90   0.481
  sub61                      6.16       0.00       0.00       1.05       3.16       0.00       3.16        0.97   105.37   0.513
  sub62                      6.16       0.00       0.00       0.49       3.39       0.00       3.39        1.04   107.63   0.550
  sub63                      6.16       0.00       0.00       1.79       2.81       0.00       2.81        0.85    98.45   0.456
  sub64                      6.16       0.00       0.00       0.92       2.83       0.00       2.83        0.86    79.70   0.459
  sub65                      6.16       0.00       0.00       0.80       2.86       0.00       2.86        0.88    80.88   0.465
  sub66                      6.16       0.00       0.00       1.79       2.47       0.00       2.47        0.76    73.04   0.401
  sub67                      6.16       0.00       0.00       0.49       3.72       0.00       3.72        1.15   138.48   0.603
  sub68                      6.16       0.00       0.00       0.86       3.36       0.00       3.36        1.03   116.57   0.545
  sub69                      6.16       0.00       0.00       0.92       3.61       0.00       3.61        0.84   116.22   0.587
  sub70                      6.16       3.69       0.00       3.35       4.46       0.00       4.46        1.02    93.64   0.453
  sub71                      6.16       0.00       0.00       0.49       3.24       0.00       3.24        0.77    75.09   0.527
  sub72                      6.16       0.00       0.00       0.43       2.30       0.00       2.30        0.47    35.50   0.374
  sub73                      6.16       4.34       0.00       3.57       4.56       0.00       4.56        1.07    80.50   0.434
  sub74                      6.16       0.00       0.00       4.62       1.09       0.00       1.09        0.44    64.97   0.177
  
  
  ******************
  Node Depth Summary
  ******************
  
  ---------------------------------------------------------------------------------
                                 Average  Maximum  Maximum  Time of Max    Reported
                                   Depth    Depth      HGL   Occurrence   Max Depth
  Node                 Type       Meters   Meters   Meters  days hr:min      Meters
  ---------------------------------------------------------------------------------
  WS02001211           JUNCTION     0.61     0.67     5.51     0  00:22        0.67
  WS02001212           JUNCTION     0.34     0.39     5.45     0  00:22        0.39
  WS02001213           JUNCTION     0.57     0.62     5.39     0  03:01        0.62
  WS02003069           JUNCTION     0.41     0.48     5.06     0  03:00        0.48
  WS02003072           JUNCTION     0.47     0.54     4.91     0  03:01        0.54
  WS02003073           JUNCTION     0.28     0.33     4.39     0  03:02        0.33
  WS02003060           JUNCTION     0.36     0.42     5.35     0  03:00        0.42
  WS02003066           JUNCTION     0.23     0.28     5.83     0  02:58        0.28
  WS02003059           JUNCTION     0.64     0.69     5.38     0  03:01        0.69
  WS02003067           JUNCTION     0.57     0.66     5.98     0  02:57        0.66
  WS02004401           JUNCTION     0.66     0.78     6.78     0  02:54        0.78
  WS02004402           JUNCTION     0.69     0.81     6.77     0  02:54        0.81
  WS02004403           JUNCTION     0.71     0.83     6.76     0  02:54        0.83
  WS02004404           JUNCTION     0.78     0.90     6.75     0  02:54        0.90
  WS02004406           JUNCTION     0.79     0.91     6.74     0  02:54        0.91
  WS02004409           JUNCTION     0.48     0.60     6.37     0  02:56        0.60
  WS02004410           JUNCTION     0.50     0.62     6.34     0  02:57        0.62
  WS02004411           JUNCTION     0.51     0.63     6.31     0  02:57        0.63
  WS02004412           JUNCTION     0.53     0.64     6.28     0  02:57        0.64
  WS02004413           JUNCTION     0.69     0.81     6.28     0  02:57        0.81
  WS02004405           JUNCTION     0.78     0.90     6.75     0  02:54        0.90
  WS02006109           JUNCTION     0.73     0.87     7.49     0  02:49        0.87
  WS02006110           JUNCTION     0.73     0.85     7.44     0  02:50        0.85
  WS02006111           JUNCTION     0.21     0.26     6.97     0  02:50        0.26
  WS02006112           JUNCTION     0.82     0.97     6.85     0  02:53        0.96
  WS02006113           JUNCTION     0.33     0.41     7.30     0  02:50        0.41
  WS02006115           JUNCTION     0.55     0.68     6.82     0  02:53        0.68
  WS02006116           JUNCTION     0.63     0.76     6.80     0  02:53        0.76
  WS02006230           JUNCTION     0.68     0.87     7.62     0  02:50        0.87
  WS02006231           JUNCTION     0.45     0.57     7.69     0  02:52        0.57
  WS02006232           JUNCTION     0.59     0.70     7.74     0  02:53        0.70
  WS02006234           JUNCTION     0.50     0.62     7.78     0  02:53        0.62
  WS02006235           JUNCTION     0.53     0.65     7.81     0  02:54        0.65
  WS02006238           JUNCTION     0.56     0.67     7.81     0  02:54        0.67
  WS02006240           JUNCTION     0.45     0.56     7.85     0  02:54        0.56
  WS02006242           JUNCTION     0.50     0.61     7.88     0  02:54        0.61
  WS02006243           JUNCTION     0.38     0.48     7.90     0  02:55        0.48
  WS02006245           JUNCTION     0.36     0.46     7.94     0  02:54        0.46
  WS02006247           JUNCTION     0.38     0.47     7.97     0  02:54        0.47
  WS02006248           JUNCTION     0.33     0.41     8.00     0  02:54        0.41
  WS02006249           JUNCTION     0.37     0.44     8.04     0  02:54        0.44
  WS02006239           JUNCTION     0.51     0.62     7.83     0  02:54        0.62
  WS02006251           JUNCTION     0.36     0.43     8.10     0  02:52        0.43
  WS02006252           JUNCTION     0.31     0.35     8.59     0  02:40        0.35
  WS02006253           JUNCTION     0.38     0.45     8.10     0  02:52        0.45
  WS02006256           JUNCTION     0.99     1.15     8.09     0  00:00        1.12
  WS02004138           JUNCTION     0.14     0.17     7.42     0  00:20        0.17
  WS02004407           JUNCTION     0.22     0.27     6.58     0  02:54        0.27
  WS02006228           JUNCTION     0.72     0.89     7.54     0  02:49        0.89
  WS02006229           JUNCTION     0.69     0.87     7.57     0  02:49        0.87
  WS02006280           JUNCTION     0.05     0.15     8.42     0  02:17        0.15
  WS02006284           JUNCTION     0.34     0.49     8.89     0  02:17        0.49
  WS02006287           JUNCTION     0.08     0.22     9.18     0  02:17        0.22
  WSF200               JUNCTION     0.22     0.28     5.51     0  02:58        0.28
  HS02004901           JUNCTION     0.11     0.24    10.06     0  02:15        0.24
  HS02004881           JUNCTION     0.01     0.03     9.05     0  02:16        0.03
  HS02004876           JUNCTION     0.03     0.10     9.13     0  02:14        0.10
  HS02004870           JUNCTION     0.01     0.04     9.33     0  02:17        0.04
  HS02004862           JUNCTION     0.01     0.05     9.43     0  02:18        0.05
  HS02004856           JUNCTION     0.07     0.11     9.53     0  02:17        0.11
  HS02004852           JUNCTION     0.01     0.03     9.54     0  02:18        0.03
  HS02004848           JUNCTION     0.01     0.03     9.63     0  02:16        0.03
  HS02004842           JUNCTION     0.33     0.36     9.63     0  02:16        0.36
  HS02004837           JUNCTION     0.03     0.05     9.63     0  02:16        0.05
  HS02004830           JUNCTION     0.04     0.06     9.53     0  02:17        0.06
  HS02004824           JUNCTION     0.02     0.04     9.44     0  02:20        0.04
  HS02004817           JUNCTION     0.42     0.53     9.38     0  02:17        0.53
  HS02004807           JUNCTION     0.11     0.21     9.38     0  02:17        0.21
  HS02004802           JUNCTION     0.15     0.25     9.37     0  02:17        0.25
  HS02004799           JUNCTION     0.10     0.27     9.48     0  02:15        0.27
  HS02004792           JUNCTION     0.02     0.11     9.63     0  02:15        0.10
  HS02004788           JUNCTION     0.02     0.08     9.98     0  02:16        0.08
  HS02004785           JUNCTION     0.03     0.14    10.04     0  02:15        0.14
  HS02004777           JUNCTION     0.13     0.26    10.06     0  02:15        0.26
  HS02004770           JUNCTION     0.10     0.23    10.06     0  02:15        0.23
  HS02004480           JUNCTION     0.06     0.21     9.45     0  02:16        0.21
  HS02004479           JUNCTION     0.10     0.25     9.45     0  02:16        0.25
  HS02004478           JUNCTION     0.05     0.13     9.36     0  02:17        0.13
  YS02001745           JUNCTION     0.19     0.38     7.90     0  04:59        0.37
  YS02001748           JUNCTION     0.56     0.78     7.86     0  05:03        0.77
  YS02001751           JUNCTION     0.74     1.22     8.09     0  05:12        1.02
  YS02001754           JUNCTION     0.99     1.42     8.03     0  05:12        1.26
  YS02001762           JUNCTION     1.18     1.57     7.97     0  05:04        1.51
  YS02001765           JUNCTION     1.14     1.57     8.02     0  04:22        1.49
  YS02001767           JUNCTION     1.10     1.59     8.08     0  03:52        1.48
  YS02001770           JUNCTION     1.10     1.67     8.17     0  03:52        1.51
  YS02001774           JUNCTION     1.16     1.76     8.18     0  03:52        1.59
  YS02001779           JUNCTION     0.92     1.51     8.19     0  03:52        1.33
  YS02001882           JUNCTION     0.29     0.48     7.19     0  02:49        0.48
  YS02001884           JUNCTION     0.38     0.58     7.19     0  02:49        0.58
  YS02001759           JUNCTION     1.22     1.59     7.96     0  05:04        1.51
  YS02001887           JUNCTION     0.46     0.66     7.19     0  02:52        0.66
  YS02001890           JUNCTION     0.49     0.69     7.19     0  02:50        0.69
  YS02001898           JUNCTION     0.26     0.44     7.18     0  02:53        0.44
  YS02001901           JUNCTION     0.38     0.57     7.18     0  02:50        0.57
  YS02001904           JUNCTION     0.36     0.54     7.17     0  02:53        0.54
  YS02001907           JUNCTION     0.68     0.89     7.18     0  02:53        0.89
  YS02001910           JUNCTION     0.47     0.67     7.18     0  02:52        0.67
  YS02001915           JUNCTION     0.28     0.46     7.17     0  02:51        0.46
  YS02001918           JUNCTION     0.08     0.11     7.17     0  02:52        0.11
  YS02001619           JUNCTION     0.70     0.91     7.84     0  05:02        0.90
  YS02001629           JUNCTION     1.05     1.33     7.88     0  04:31        1.32
  YS02001641           JUNCTION     1.15     1.48     7.91     0  04:39        1.42
  YS02001644           JUNCTION     1.16     1.49     7.92     0  04:39        1.42
  YS02001652           JUNCTION     1.00     1.44     8.04     0  04:40        1.25
  YS02001655           JUNCTION     0.77     1.28     8.13     0  04:40        1.01
  YS02001920           JUNCTION     0.18     0.21     7.22     0  03:02        0.21
  YS02001923           JUNCTION     0.07     0.09     7.35     0  03:02        0.09
  YS02001926           JUNCTION     0.14     0.18     7.63     0  03:01        0.18
  YS02001929           JUNCTION     0.07     0.09     7.78     0  03:01        0.09
  YS02001658           JUNCTION     0.50     0.72     7.86     0  05:07        0.71
  YS02001661           JUNCTION     0.29     0.44     7.85     0  04:54        0.44
  YS02001664           JUNCTION     0.07     0.12     8.05     0  02:43        0.12
  YS02001622           JUNCTION     0.72     0.92     7.83     0  05:28        0.92
  YS02001633           JUNCTION     1.14     1.43     7.89     0  04:39        1.40
  YS02001649           JUNCTION     1.19     1.54     7.93     0  04:39        1.45
  YS02001757           JUNCTION     1.32     1.67     7.93     0  05:12        1.59
  YS02001895           JUNCTION     0.25     0.44     7.19     0  02:52        0.44
  YS02001625           JUNCTION     1.00     1.22     7.83     0  05:13        1.22
  YS02163301           JUNCTION     1.08     1.37     7.88     0  04:33        1.35
  YS02163601           JUNCTION     1.19     1.51     7.91     0  04:39        1.46
  YS02164001           JUNCTION     1.13     1.46     7.92     0  04:39        1.40
  YS02001647           JUNCTION     0.99     1.32     7.93     0  04:40        1.23
  YSB1154              JUNCTION     0.24     0.40     9.45     0  02:16        0.40
  YSB6556              JUNCTION     0.13     0.29     9.45     0  02:16        0.29
  YSB1174              JUNCTION     0.19     0.35     9.45     0  02:16        0.35
  YSB1171              JUNCTION     0.39     0.55     9.45     0  02:16        0.55
  YS02006553           JUNCTION     0.69     0.89     7.17     0  02:53        0.89
  YS02006561           JUNCTION     0.14     0.24     6.90     0  02:51        0.24
  YS02006556           JUNCTION     0.66     0.86     7.17     0  02:51        0.86
  YS02006558           JUNCTION     0.71     0.90     7.17     0  02:51        0.90
  YS02001783           JUNCTION     0.25     0.43     6.57     0  02:51        0.43
  YS02001784           JUNCTION     0.28     0.45     6.52     0  02:52        0.45
  YS02001786           JUNCTION     0.24     0.38     6.41     0  02:52        0.38
  YS02001788           JUNCTION     0.17     0.29     6.27     0  02:51        0.29
  YS02001790           JUNCTION     0.21     0.35     6.00     0  02:53        0.35
  YS02001791           JUNCTION     0.14     0.23     5.70     0  02:53        0.23
  YS02001793           JUNCTION     0.08     0.14     4.97     0  02:28        0.14
  WS02004139           JUNCTION     0.55     0.61     5.52     0  00:22        0.61
  WSC                  OUTFALL      0.28     0.33     1.00     0  03:02        0.33
  3                    OUTFALL      0.05     0.13     6.13     0  00:00        0.12
  4                    OUTFALL      0.00     0.00     7.00     0  00:00        0.00
  5                    OUTFALL      0.00     0.00     5.00     0  00:00        0.00
  JK-storage           STORAGE      0.46     3.00     3.80     0  00:00        2.70
  CC-storage           STORAGE      0.58     0.80     7.80     0  05:32        0.80
  XR-storage           STORAGE      7.52     7.72     5.72     0  02:34        7.72
  
  
  *******************
  Node Inflow Summary
  *******************
  
  -------------------------------------------------------------------------------------------------
                                  Maximum  Maximum                  Lateral       Total        Flow
                                  Lateral    Total  Time of Max      Inflow      Inflow     Balance
                                   Inflow   Inflow   Occurrence      Volume      Volume       Error
  Node                 Type           LPS      LPS  days hr:min    10^6 ltr    10^6 ltr     Percent
  -------------------------------------------------------------------------------------------------
  WS02001211           JUNCTION      7.35   279.51     0  00:20       0.207        5.51       0.585
  WS02001212           JUNCTION      0.00   270.94     0  00:21           0        5.48       0.291
  WS02001213           JUNCTION      0.00   270.44     0  00:22           0        5.46       0.377
  WS02003069           JUNCTION      0.32   660.82     0  03:00     0.00902        12.6       0.209
  WS02003072           JUNCTION      0.00   660.81     0  03:01           0        12.5       0.261
  WS02003073           JUNCTION      1.82   662.63     0  03:01      0.0514        12.6       0.290
  WS02003060           JUNCTION     16.53   660.49     0  03:00       0.466        12.6       0.199
  WS02003066           JUNCTION      0.00   448.06     0  02:58           0        6.72       0.063
  WS02003059           JUNCTION      0.00   266.59     0  00:24           0        5.45       0.679
  WS02003067           JUNCTION      0.00   448.05     0  02:58           0        6.73       0.135
  WS02004401           JUNCTION      0.00   449.58     0  02:52           0        6.95       0.300
  WS02004402           JUNCTION      0.00   449.34     0  02:53           0        6.93       0.283
  WS02004403           JUNCTION      0.00   449.21     0  02:53           0        6.91       0.259
  WS02004404           JUNCTION      0.16   449.30     0  02:54     0.00457         6.9       0.196
  WS02004406           JUNCTION      0.00   449.30     0  02:54           0        6.87       0.478
  WS02004409           JUNCTION      0.00   449.28     0  02:54           0        6.83       0.227
  WS02004410           JUNCTION      0.00   448.79     0  02:55           0        6.81       0.258
  WS02004411           JUNCTION      0.00   448.44     0  02:56           0        6.79       0.266
  WS02004412           JUNCTION      0.00   448.22     0  02:56           0        6.78       0.289
  WS02004413           JUNCTION      0.00   448.09     0  02:57           0        6.76       0.431
  WS02004405           JUNCTION      0.04   449.32     0  02:54     0.00107        6.89       0.293
  WS02006109           JUNCTION      1.23   448.09     0  02:49      0.0347        7.04       0.308
  WS02006110           JUNCTION      0.00   448.10     0  02:49           0        7.02       0.274
  WS02006111           JUNCTION      0.00   460.42     0  02:50           0        6.99       0.060
  WS02006112           JUNCTION     10.58   452.84     0  02:50      0.0279        7.02       0.404
  WS02006113           JUNCTION      0.00   448.17     0  02:50           0           7       0.132
  WS02006115           JUNCTION      0.00   450.83     0  02:51           0        6.99       0.276
  WS02006116           JUNCTION      0.00   450.02     0  02:52           0        6.97       0.263
  WS02006230           JUNCTION     10.28   331.91     0  03:07        0.29        6.11       0.239
  WS02006231           JUNCTION      0.00   320.96     0  03:01           0        5.82       0.142
  WS02006232           JUNCTION      0.00   320.73     0  03:01           0        5.84       0.268
  WS02006234           JUNCTION      0.00   320.43     0  03:01           0        5.85       0.128
  WS02006235           JUNCTION      0.00   320.26     0  03:00           0        5.89       0.176
  WS02006238           JUNCTION      0.00   222.11     0  02:58           0         3.9       0.188
  WS02006240           JUNCTION      0.00   221.65     0  02:56           0         3.9       0.289
  WS02006242           JUNCTION      0.00   221.50     0  02:55           0         3.9       0.355
  WS02006243           JUNCTION      0.00   221.55     0  02:53           0         3.9       0.171
  WS02006245           JUNCTION      0.00   222.41     0  02:44           0        3.91       0.203
  WS02006247           JUNCTION      0.00   224.13     0  02:44           0        3.91       0.172
  WS02006248           JUNCTION      0.00   225.35     0  02:43           0        3.92       0.117
  WS02006249           JUNCTION      0.00   226.31     0  02:43           0        3.93       0.245
  WS02006239           JUNCTION      0.00   221.88     0  02:57           0         3.9       0.280
  WS02006251           JUNCTION      0.08   228.52     0  02:40     0.00217        3.94       0.223
  WS02006252           JUNCTION      0.00   200.00     0  02:40           0        3.78       0.011
  WS02006253           JUNCTION      1.63    46.46     0  02:16     0.00361       0.158       2.424
  WS02006256           JUNCTION      0.00   300.00     0  00:00           0        3.63       0.077
  WS02004138           JUNCTION      0.00   284.79     0  00:20           0        5.33       0.061
  WS02004407           JUNCTION      0.00   449.29     0  02:54           0        6.83       0.103
  WS02006228           JUNCTION      0.00   446.87     0  02:49           0        7.02       0.212
  WS02006229           JUNCTION      0.00   446.86     0  02:49           0        7.04       0.182
  WS02006280           JUNCTION      0.00   236.29     0  02:17           0       0.948       0.007
  WS02006284           JUNCTION      0.10   236.27     0  02:17      0.0027       0.949       0.111
  WS02006287           JUNCTION      0.00   236.15     0  02:17           0       0.947       0.077
  WSF200               JUNCTION      0.00   448.05     0  02:58           0        6.71       0.060
  HS02004901           JUNCTION     13.11    13.11     0  02:09      0.0336      0.0337       5.500
  HS02004881           JUNCTION      5.28    45.22     0  02:16      0.0146       0.155       0.188
  HS02004876           JUNCTION      8.33    40.30     0  02:16      0.0281        0.14       0.378
  HS02004870           JUNCTION      9.28    32.14     0  02:16      0.0277       0.112       0.095
  HS02004862           JUNCTION      7.53    23.51     0  02:17      0.0333      0.0849       0.200
  HS02004856           JUNCTION      6.88    16.04     0  02:16      0.0208       0.053       2.788
  HS02004852           JUNCTION      0.00     9.61     0  02:16           0      0.0322       0.158
  HS02004848           JUNCTION     14.99    14.99     0  02:19      0.0661      0.0661       0.066
  HS02004842           JUNCTION      0.00     5.94     0  02:29           0      0.0469      38.317
  HS02004837           JUNCTION     21.17    26.12     0  02:16       0.227       0.261       0.312
  HS02004830           JUNCTION      0.15    26.25     0  02:16     0.00423       0.252       0.492
  HS02004824           JUNCTION     16.79    42.82     0  02:20      0.0866       0.337       0.160
  HS02004817           JUNCTION      0.60    43.41     0  02:20      0.0169       0.353       4.950
  HS02004807           JUNCTION     17.48    59.27     0  02:18       0.051       0.388       1.102
  HS02004802           JUNCTION      0.00    59.64     0  02:20           0       0.383       1.068
  HS02004799           JUNCTION     13.43   150.95     0  02:15      0.0412       0.496       0.457
  HS02004792           JUNCTION     60.18   137.83     0  02:14        0.18       0.455       0.090
  HS02004788           JUNCTION     19.86    80.21     0  02:15       0.104       0.277       0.142
  HS02004785           JUNCTION      0.15    60.79     0  02:14     0.00423       0.174       0.279
  HS02004777           JUNCTION      0.03    61.26     0  02:13    0.000846       0.175       3.056
  HS02004770           JUNCTION     51.08    62.61     0  02:11       0.143       0.175       1.796
  HS02004480           JUNCTION      0.00   177.86     0  02:16           0        0.58       0.128
  HS02004479           JUNCTION      0.00    27.60     0  02:17           0       0.096       0.766
  HS02004478           JUNCTION      0.00   236.14     0  02:17           0       0.948       0.065
  YS02001745           JUNCTION     83.91   167.34     0  04:51       0.897        1.11       0.216
  YS02001748           JUNCTION      0.04   205.27     0  04:52     0.00127        1.24       0.901
  YS02001751           JUNCTION      0.01   197.71     0  04:23     0.00031        1.02       1.803
  YS02001754           JUNCTION      0.26   116.89     0  03:07     0.00733       0.903       2.500
  YS02001762           JUNCTION      0.00   133.25     0  02:35           0       0.985       2.173
  YS02001765           JUNCTION      0.00   129.65     0  02:36           0       0.987       2.503
  YS02001767           JUNCTION      0.54   119.16     0  02:46      0.0151        1.01       3.607
  YS02001770           JUNCTION    107.79   119.59     0  02:45        1.04        1.11       2.747
  YS02001774           JUNCTION      0.00    54.02     0  03:52           0       0.151      19.868
  YS02001779           JUNCTION      0.01    53.71     0  03:52    0.000141      0.0684      19.580
  YS02001882           JUNCTION      0.00     4.69     0  02:07           0     0.00576      42.399
  YS02001884           JUNCTION      0.00    13.58     0  02:07           0      0.0226      28.040
  YS02001759           JUNCTION    105.41   217.90     0  02:55       0.974        1.92       1.200
  YS02001887           JUNCTION    138.93   139.39     0  02:42        1.16        1.17       0.622
  YS02001890           JUNCTION      0.00   139.54     0  02:42           0        1.15       0.697
  YS02001898           JUNCTION      0.00   138.77     0  02:43           0        1.13       0.199
  YS02001901           JUNCTION      0.00   138.72     0  02:41           0        1.13       0.497
  YS02001904           JUNCTION      0.00   137.84     0  02:44           0        1.13       0.462
  YS02001907           JUNCTION      0.00   248.72     0  02:54           0        2.43       0.921
  YS02001910           JUNCTION      0.00   114.48     0  03:00           0        1.31       0.791
  YS02001915           JUNCTION     75.11   113.50     0  03:00       0.766        1.31       0.356
  YS02001918           JUNCTION      0.00    38.38     0  03:02           0       0.547       0.215
  YS02001619           JUNCTION     73.04    91.89     0  04:29       0.756       0.764       1.222
  YS02001629           JUNCTION      0.00   179.82     0  04:28           0       0.756       3.167
  YS02001641           JUNCTION      0.00   161.83     0  02:57           0        1.48       1.432
  YS02001644           JUNCTION     79.74   243.03     0  02:57       0.861        2.31       1.138
  YS02001652           JUNCTION      0.00   125.32     0  03:04           0       0.856       2.487
  YS02001655           JUNCTION      0.15   210.69     0  04:19     0.00434       0.964       2.082
  YS02001920           JUNCTION      2.87    38.38     0  03:02      0.0809       0.549       0.384
  YS02001923           JUNCTION      0.04    35.51     0  03:01     0.00106       0.469       0.068
  YS02001926           JUNCTION      0.05    35.54     0  03:01     0.00147        0.47       0.480
  YS02001929           JUNCTION     35.50    35.50     0  03:01       0.469       0.469       0.065
  YS02001658           JUNCTION      0.00   229.52     0  04:08           0        1.12       1.059
  YS02001661           JUNCTION      0.00   190.53     0  04:17           0        1.02       0.352
  YS02001664           JUNCTION     98.45    98.45     0  02:43        0.85        0.85       0.011
  YS02001622           JUNCTION      0.00   122.15     0  04:30           0       0.826       3.165
  YS02001633           JUNCTION     81.08   164.76     0  02:55       0.886        1.53       2.110
  YS02001649           JUNCTION      0.00   342.79     0  02:59           0        3.06       1.218
  YS02001757           JUNCTION      0.00   619.54     0  02:59           0        5.73       1.631
  YS02001895           JUNCTION      0.00   138.68     0  02:42           0        1.14       0.340
  YS02001625           JUNCTION      0.00   181.02     0  04:28           0       0.862       4.599
  YS02163301           JUNCTION      0.00    88.45     0  02:47           0       0.675       3.604
  YS02163601           JUNCTION      0.11   162.48     0  02:57      0.0031         1.5       2.037
  YS02164001           JUNCTION      0.00   159.49     0  02:59           0        1.48       1.342
  YS02001647           JUNCTION      0.00   245.37     0  02:58           0        2.27       1.150
  YSB1154              JUNCTION     14.82    14.82     0  02:14        0.05      0.0514       2.889
  YSB6556              JUNCTION      0.00    14.72     0  02:17           0      0.0524       2.434
  YSB1174              JUNCTION     14.98    14.98     0  02:09      0.0364      0.0374       3.553
  YSB1171              JUNCTION      0.00    27.51     0  02:15           0      0.0954       7.098
  YS02006553           JUNCTION      0.00   248.73     0  02:56           0        2.42       0.597
  YS02006561           JUNCTION      0.00   373.16     0  02:51           0        3.42       0.018
  YS02006556           JUNCTION      0.00   248.84     0  02:56           0        2.42       0.431
  YS02006558           JUNCTION    117.45   364.88     0  02:51        1.06        3.45       0.134
  YS02001783           JUNCTION      0.00   364.88     0  02:51           0        3.42       0.046
  YS02001784           JUNCTION      1.06   365.92     0  02:51      0.0299        3.45       0.076
  YS02001786           JUNCTION      0.06   365.92     0  02:52     0.00159        3.45       0.074
  YS02001788           JUNCTION      0.07   365.97     0  02:52       0.002        3.45       0.042
  YS02001790           JUNCTION      0.15   366.12     0  02:52     0.00437        3.45       0.053
  YS02001791           JUNCTION      0.00   366.10     0  02:53           0        3.45       0.027
  YS02001793           JUNCTION      0.00   366.10     0  02:53           0        3.45       0.009
  WS02004139           JUNCTION      0.32   284.51     0  00:20     0.00905        5.33       0.574
  WSC                  OUTFALL       0.00   662.62     0  03:02           0        12.5       0.000
  3                    OUTFALL       0.00   250.55     0  00:00           0        1.62       0.000
  4                    OUTFALL       0.00     0.00     0  00:00           0           0       0.000 ltr
  5                    OUTFALL       0.00     0.00     0  00:00           0           0       0.000 ltr
  JK-storage           STORAGE       0.00   366.10     0  02:53           0         3.6      -0.799
  CC-storage           STORAGE       0.00   619.46     0  03:00           0        5.62       0.708
  XR-storage           STORAGE     335.95   335.95     0  02:53        7.15        7.75      -0.000
  
  
  **********************
  Node Surcharge Summary
  **********************
  
  Surcharging occurs when water rises above the top of the highest conduit.
  ---------------------------------------------------------------------
                                               Max. Height   Min. Depth
                                   Hours       Above Crown    Below Rim
  Node                 Type      Surcharged         Meters       Meters
  ---------------------------------------------------------------------
  WS02006109           JUNCTION        0.58          0.052        1.768
  WS02006228           JUNCTION        0.55          0.058        2.142
  YS02001751           JUNCTION        0.02          0.215        0.985
  YS02001754           JUNCTION        3.82          0.369        0.781
  YS02001762           JUNCTION        5.23          0.574        0.576
  YS02001765           JUNCTION        5.17          0.566        0.534
  YS02001767           JUNCTION        5.09          0.592        0.438
  YS02001770           JUNCTION        4.97          0.643        0.277
  YS02001774           JUNCTION        5.20          0.763        0.287
  YS02001779           JUNCTION        3.35          0.509        0.171
  YS02001759           JUNCTION        5.27          0.591        0.619
  YS02001641           JUNCTION        5.20          0.475        0.625
  YS02001644           JUNCTION        5.20          0.491        0.429
  YS02001652           JUNCTION        4.14          0.412        0.718
  YS02001655           JUNCTION        0.05          0.280        0.920
  YS02001633           JUNCTION        5.15          0.414        0.646
  YS02001649           JUNCTION        5.24          0.537        0.513
  YS02001757           JUNCTION        5.38          0.674        0.536
  YS02001625           JUNCTION        4.32          0.224        0.556
  YS02163301           JUNCTION        5.04          0.366        0.664
  YS02163601           JUNCTION        5.24          0.512        0.568
  YS02164001           JUNCTION        5.17          0.459        0.641
  YS02001647           JUNCTION        4.25          0.316        0.584
  
  
  *********************
  Node Flooding Summary
  *********************
  
  Flooding refers to all water that overflows a node, whether it ponds or not.
  --------------------------------------------------------------------------
                                                             Total   Maximum
                                 Maximum   Time of Max       Flood    Ponded
                        Hours       Rate    Occurrence      Volume     Depth
  Node                 Flooded       LPS   days hr:min    10^6 ltr    Meters
  --------------------------------------------------------------------------
  XR-storage              5.26    145.95      0  02:53       1.490     0.000
  
  
  **********************
  Storage Volume Summary
  **********************
  
  --------------------------------------------------------------------------------------------------
                         Average     Avg  Evap Exfil       Maximum     Max    Time of Max    Maximum
                          Volume    Pcnt  Pcnt  Pcnt        Volume    Pcnt     Occurrence    Outflow
  Storage Unit           1000 m3    Full  Loss  Loss       1000 m3    Full    days hr:min        LPS
  --------------------------------------------------------------------------------------------------
  JK-storage               0.023       8     0     0         0.151      52       0  00:00     300.00
  CC-storage               1.619      10     0     0         2.237      14       0  05:32     200.00
  XR-storage               0.902      97     0     0         0.926     100       0  02:34     284.79
  
  
  ***********************
  Outfall Loading Summary
  ***********************
  
  -----------------------------------------------------------
                         Flow       Avg       Max       Total
                         Freq      Flow      Flow      Volume
  Outfall Node           Pcnt       LPS       LPS    10^6 ltr
  -----------------------------------------------------------
  WSC                   99.99    515.37    662.62      12.523
  3                     67.24    109.48    250.55       1.617
  4                      0.00      0.00      0.00       0.000
  5                      0.00      0.00      0.00       0.000
  -----------------------------------------------------------
  System                41.81    624.85    864.02      14.140
  
  
  ********************
  Link Flow Summary
  ********************
  
  -----------------------------------------------------------------------------
                                 Maximum  Time of Max   Maximum    Max/    Max/
                                  |Flow|   Occurrence   |Veloc|    Full    Full
  Link                 Type          LPS  days hr:min     m/sec    Flow   Depth
  -----------------------------------------------------------------------------
  WS02003066WSF200     CONDUIT    448.05     0  02:58      2.62    0.08    0.21
  WS02006287WS02006284 CONDUIT    236.18     0  02:17      1.70    0.11    0.23
  WS02006284WS02006280 CONDUIT    236.29     0  02:17      1.94    0.10    0.21
  WS02006280WS02006229 CONDUIT    236.30     0  02:17      3.12    0.05    0.15
  WS02006229WS02006228 CONDUIT    446.87     0  02:49      0.89    1.48    1.00
  WS02006256WS02006235 CONDUIT    166.25     0  00:01      2.58    1.76    1.00
  WS02006253WS02006251 CONDUIT     46.42     0  02:16      0.51    0.14    0.62
  WS02006252WS02006251 CONDUIT    200.33     0  02:40      1.97    0.74    0.76
  WS02006251WS02006249 CONDUIT    226.31     0  02:43      0.95    0.65    0.62
  WS02006249WS02006248 CONDUIT    225.35     0  02:43      1.02    1.23    0.59
  WS02006248WS02006247 CONDUIT    224.13     0  02:44      0.98    0.49    0.62
  WS02006247WS02006245 CONDUIT    222.41     0  02:44      0.93    1.76    0.65
  WS02006245WS02006243 CONDUIT    221.55     0  02:53      0.93    0.66    0.66
  WS02006243WS02006242 CONDUIT    221.50     0  02:55      0.79    0.47    0.76
  WS02006242WS02006240 CONDUIT    221.65     0  02:56      0.71    0.88    0.83
  WS02006240WS02006239 CONDUIT    221.88     0  02:57      0.75    0.70    0.82
  WS02006239WS02006238 CONDUIT    222.11     0  02:58      0.67    0.71    0.91
  WS02006238WS02006235 CONDUIT    222.23     0  02:58      1.25    0.50    0.94
  WS02006235WS02006234 CONDUIT    320.43     0  03:01      0.94    3.38    0.88
  WS02006234WS02006232 CONDUIT    320.73     0  03:01      1.13    0.65    0.94
  WS02006232WS02006231 CONDUIT    320.96     0  03:01      0.94    0.67    0.90
  WS02006231WS02006230 CONDUIT    321.63     0  03:07      1.29    4.88    0.76
  WS02006230WS02006229 CONDUIT    333.03     0  03:07      0.87    7.41    1.00
  WS02006228WS02006109 CONDUIT    446.86     0  02:49      0.89    1.95    1.00
  WS02006116WS02004401 CONDUIT    449.58     0  02:52      0.73    0.62    0.77
  WS02006115WS02006116 CONDUIT    450.02     0  02:52      0.79    0.58    0.69
  WS02006113WS02006111 CONDUIT    460.42     0  02:50      2.30    0.55    0.42
  WS02006112WS02006115 CONDUIT    450.83     0  02:51      0.66    0.27    0.82
  WS02006111WS02006112 CONDUIT    449.45     0  02:50      1.32    0.21    0.66
  WS02006110WS02006113 CONDUIT    448.17     0  02:50      1.10    0.41    0.76
  WS02006109WS02006110 CONDUIT    448.10     0  02:49      0.90    0.86    0.96
  WS02004411WS02004412 CONDUIT    448.22     0  02:56      0.85    0.64    0.64
  WS02004401WS02004402 CONDUIT    449.34     0  02:53      0.77    0.54    0.80
  WS02004413WS02003067 CONDUIT    448.05     0  02:58      1.01    0.19    0.55
  WS02004412WS02004413 CONDUIT    448.09     0  02:57      0.73    0.30    0.73
  WS02004410WS02004411 CONDUIT    448.44     0  02:56      0.87    0.61    0.63
  WS02004409WS02004410 CONDUIT    448.79     0  02:55      0.90    0.58    0.61
  WS02004407WS02004409 CONDUIT    449.28     0  02:54      1.37    0.16    0.44
  WS02004406WS02004407 CONDUIT    449.29     0  02:54      0.94    0.20    0.59
  WS02004405WS02004406 CONDUIT    449.30     0  02:54      0.66    0.89    0.90
  WS02004404WS02004405 CONDUIT    449.28     0  02:54      0.84    4.40    0.90
  WS02004403WS02004404 CONDUIT    449.14     0  02:54      0.74    0.32    0.87
  WS02004402WS02004403 CONDUIT    449.21     0  02:53      0.75    0.65    0.82
  WS02004139WS02001211 CONDUIT    272.16     0  00:20      0.53    0.34    0.49
  WS02004138WS02004139 CONDUIT    284.18     0  00:20      2.39    0.06    0.36
  WS02003067WS02003066 CONDUIT    448.06     0  02:58      1.09    0.14    0.39
  WS02001213WS02003059 CONDUIT    266.59     0  00:24      0.57    0.44    0.65
  WS02001212WS02001213 CONDUIT    270.44     0  00:22      1.16    0.42    0.34
  WS02001211WS02001212 CONDUIT    270.94     0  00:21      0.64    0.21    0.53
  WS02003072WS02003073 CONDUIT    660.81     0  03:01      1.53    1.43    0.41
  WS02003069WS02003072 CONDUIT    660.81     0  03:01      1.45    0.32    0.42
  WS02003060WS02003069 CONDUIT    660.50     0  03:00      1.71    0.26    0.37
  WS02003059WS02003060 CONDUIT    264.92     0  00:25      0.78    0.17    0.56
  HS02004901HS02004770 CONDUIT     12.02     0  02:14      0.05    0.05    0.34
  HS02004876HS02004881 CONDUIT     40.40     0  02:17      0.62    0.43    0.09
  HS02004870HS02004876 CONDUIT     32.12     0  02:17      0.43    0.02    0.11
  HS02004842HS02004848 CONDUIT      5.94     0  02:29      0.03    0.00    0.28
  HS02004837HS02004842 CONDUIT      6.16     0  02:30      0.41    0.00    0.29
  HS02004830HS02004837 CONDUIT     26.10     0  02:16      0.46    0.03    0.08
  HS02004824HS02004830 CONDUIT     26.24     0  02:17      0.50    0.03    0.07
  HS02004817HS02004824 CONDUIT     42.81     0  02:20      0.17    0.02    0.41
  HS02004770HS02004777 CONDUIT     61.23     0  02:13      0.25    0.11    0.35
  HS02004799HS02004480 CONDUIT    150.69     0  02:15      0.64    0.19    0.34
  HS02004792HS02004799 CONDUIT    137.75     0  02:15      0.73    0.08    0.27
  HS02004788HS02004792 CONDUIT     80.14     0  02:16      0.88    0.05    0.13
  HS02004785HS02004788 CONDUIT     60.69     0  02:15      0.55    0.46    0.16
  HS02004777HS02004785 CONDUIT     60.64     0  02:14      0.30    0.07    0.29
  HS02004480HS02004478 CONDUIT    177.83     0  02:16      1.02    0.75    0.25
  HS02004479HS02004480 CONDUIT     27.83     0  02:18      0.15    0.03    0.33
  HS02004862HS02004870 CONDUIT     23.46     0  02:18      0.50    0.03    0.07
  HS02004848HS02004852 CONDUIT      9.61     0  02:16      0.33    0.01    0.04
  HS02004856HS02004862 CONDUIT     16.00     0  02:17      0.37    0.02    0.06
  HS02004852HS02004856 CONDUIT      9.57     0  02:18      0.14    0.01    0.10
  HS02004802HS02004478 CONDUIT     60.13     0  02:20      0.32    0.05    0.27
  HS02004478WS02006287 CONDUIT    236.15     0  02:17      1.39    0.07    0.19
  HS02004817HS02004807 CONDUIT     44.09     0  02:21      0.12    0.03    0.53
  HS02004807HS02004802 CONDUIT     59.64     0  02:20      0.27    0.11    0.32
  YS02001759YS02001757 CONDUIT    217.75     0  02:55      0.28    0.15    1.00
  YS02001762YS02001759 CONDUIT    113.22     0  02:55      0.17    0.13    1.00
  YS02001765YS02001762 CONDUIT    133.25     0  02:35      0.23    0.12    1.00
  YS02001770YS02001767 CONDUIT    118.63     0  02:46      0.37    0.47    1.00
  YS02001774YS02001770 CONDUIT     54.02     0  03:52      0.13    0.03    1.00
  YS02001779YS02001774 CONDUIT     53.70     0  03:52      0.08    0.03    1.00
  YS02001649YS02001757 CONDUIT    343.15     0  02:59      0.44    0.21    1.00
  YS02001767YS02001765 CONDUIT    129.65     0  02:36      0.26    0.16    1.00
  YS02006561YS02001783 CONDUIT    364.88     0  02:51      1.86    0.19    0.41
  YS02001783YS02001784 CONDUIT    364.86     0  02:51      1.30    0.50    0.55
  YS02001784YS02001785 CONDUIT    365.86     0  02:52      1.38    0.85    0.52
  YS02001788YS02001790 CONDUIT    365.96     0  02:52      1.95    0.27    0.40
  YS02001790YS02001791 CONDUIT    366.10     0  02:53      2.23    0.40    0.36
  YS02001791YS02001793 CONDUIT    366.10     0  02:53      4.60    0.16    0.22
  YS02001910YS02001907 CONDUIT    114.59     0  03:01      0.49    0.06    0.77
  YS02001786YS02001788 CONDUIT    365.90     0  02:52      1.83    0.71    0.42
  YS02001915YS02001910 CONDUIT    114.48     0  03:00      0.44    0.06    0.56
  YS02001918YS02001915 CONDUIT     39.19     0  03:03      0.44    0.02    0.28
  YS02001923YS02001920 CONDUIT     35.51     0  03:02      0.48    0.02    0.15
  YS02001926YS02001923 CONDUIT     35.47     0  03:01      0.52    0.05    0.14
  YS02001929YS02001926 CONDUIT     35.49     0  03:01      0.55    0.02    0.14
  YS02001920YS02001918 CONDUIT     38.38     0  03:02      0.49    0.04    0.16
  YS02001629YS02163301 CONDUIT     88.45     0  02:47      0.12    0.11    1.00
  YS02001619YS02001622 CONDUIT    122.15     0  04:30      0.69    0.18    0.91
  YS02001622YS02001625 CONDUIT    181.02     0  04:28      0.27    0.10    0.96
  YS02001625YS02001629 CONDUIT    179.82     0  04:28      0.27    0.09    0.97
  YS02163301YS02001633 CONDUIT     83.96     0  02:55      0.12    0.08    1.00
  YS02163601YS02164001 CONDUIT    159.49     0  02:59      0.20    0.14    1.00
  YS02164001YS02001641 CONDUIT    161.83     0  02:57      0.21    0.22    1.00
  YS02001641YS02001644 CONDUIT    163.37     0  02:57      0.21    0.53    1.00
  YS02001647YS02001649 CONDUIT    260.11     0  02:57      0.33    0.14    1.00
  YS02006553YS02006556 CONDUIT    248.84     0  02:56      0.35    0.21    0.85
  YS02006556YS02006558 CONDUIT    248.85     0  02:56      0.34    0.20    0.88
  YSB6556YSB1171       CONDUIT     15.04     0  02:18      0.06    0.02    0.60
  YS02001907YS02006553 CONDUIT    248.73     0  02:56      0.29    0.29    0.97
  YS02006558YS02006561 CONDUIT    373.16     0  02:51      2.45    0.82    0.53
  YS02001633YS02163601 CONDUIT    162.37     0  02:57      0.21    0.17    1.00
  YS02001644YS02001647 CONDUIT    245.37     0  02:58      0.32    0.14    1.00
  YS02001745YS02001748 CONDUIT    205.23     0  04:52      1.44    0.08    0.50
  YS02001748YS02001751 CONDUIT    197.70     0  04:23      1.13    0.10    0.88
  YS02001751YS02001754 CONDUIT    116.63     0  03:07      1.01    0.06    1.00
  YS02001754YS02001757 CONDUIT    118.14     0  04:18      0.33    0.05    1.00
  YS02001882YS02001884 CONDUIT      4.69     0  02:07      0.06    0.01    0.50
  YS02001884YS02001887 CONDUIT     13.58     0  02:07      0.07    0.02    0.59
  YS02001890YS02001895 CONDUIT    138.68     0  02:42      0.31    0.06    0.56
  YS02001895YS02001898 CONDUIT    138.77     0  02:43      0.51    0.24    0.42
  YS02001898YS02001901 CONDUIT    138.72     0  02:41      0.35    0.09    0.50
  YS02001901YS02001904 CONDUIT    137.84     0  02:44      0.31    0.21    0.56
  YS02001904YS02001907 CONDUIT    138.30     0  02:43      0.23    0.05    0.71
  YS02001887YS02001890 CONDUIT    139.54     0  02:42      0.26    0.24    0.65
  YS02001652YS02001649 CONDUIT    121.71     0  02:53      0.37    0.06    1.00
  YS02001655YS02001652 CONDUIT    125.32     0  03:04      1.08    0.06    1.00
  YS02001658YS02001655 CONDUIT    201.47     0  04:22      1.30    0.09    0.85
  YS02001661YS02001658 CONDUIT    229.52     0  04:08      1.50    0.09    0.51
  YS02001664YS02001661 CONDUIT     98.44     0  02:43      1.19    0.03    0.26
  YSB1154YSB6556       CONDUIT     14.72     0  02:17      0.19    0.03    0.49
  YSB1174YSB1171       CONDUIT     13.72     0  02:11      0.06    0.02    0.60
  YSB1171HS02004479    CONDUIT     27.60     0  02:17      0.54    0.02    0.47
  HS02004881HS02006253 CONDUIT     45.22     0  02:16      1.76    0.01    0.09
  YS02001793JiankangQianchi CONDUIT    366.10     0  02:53     13.02    0.03    0.56
  YS02001757CaochengTiaoxuchi CONDUIT    619.46     0  03:00      1.21    0.27    0.90
  WSF200WS02003060     CONDUIT    448.04     0  02:58      1.64    0.10    0.29
  1                    CONDUIT    662.62     0  03:02      2.97    0.23    0.33
  2                    CONDUIT      0.00     0  00:00      0.00    0.00    0.00
  3                    CONDUIT    250.55     0  00:00      8.26    0.40    0.46
  4                    CONDUIT      0.00     0  00:00      0.00    0.00    0.00
  CC-Pump-1            PUMP       200.00     0  02:40              1.00
  CC-Pump-2            PUMP         0.00     0  00:00              0.00
  JK-Pump-1            PUMP       300.00     0  00:00              1.00
  JK-Pump-2            PUMP         1.36     0  00:16              0.00
  XR-Pump-1            PUMP        95.00     0  00:00              1.00
  XR-Pump-2            PUMP        95.00     0  01:40              1.00
  XR-Pump-3            PUMP        95.00     0  00:20              1.00
  XR-Pump-4            PUMP        95.00     0  01:40              1.00
  
  
  ***************************
  Flow Classification Summary
  ***************************
  
  -------------------------------------------------------------------------------------
                      Adjusted    ---------- Fraction of Time in Flow Class ---------- 
                       /Actual         Up    Down  Sub   Sup   Up    Down  Norm  Inlet 
  Conduit               Length    Dry  Dry   Dry   Crit  Crit  Crit  Crit  Ltd   Ctrl  
  -------------------------------------------------------------------------------------
  WS02003066WSF200        1.00   0.06  0.00  0.00  0.00  0.94  0.00  0.00  0.76  0.00
  WS02006287WS02006284    1.00   0.04  0.02  0.00  0.70  0.24  0.00  0.00  0.77  0.00
  WS02006284WS02006280    1.00   0.05  0.00  0.00  0.00  0.00  0.00  0.95  0.00  0.00
  WS02006280WS02006229    1.00   0.05  0.00  0.00  0.00  0.00  0.00  0.95  0.00  0.00
  WS02006229WS02006228    1.00   0.00  0.00  0.00  0.99  0.00  0.00  0.01  0.00  0.00
  WS02006256WS02006235    1.00   0.00  0.00  0.00  1.00  0.00  0.00  0.00  0.00  0.00
  WS02006253WS02006251    1.00   0.03  0.01  0.00  0.95  0.00  0.00  0.00  0.00  0.00
  WS02006252WS02006251    1.00   0.11  0.00  0.00  0.00  0.00  0.88  0.00  0.00  0.00
  WS02006251WS02006249    1.00   0.00  0.00  0.00  1.00  0.00  0.00  0.00  0.26  0.00
  WS02006249WS02006248    1.00   0.00  0.02  0.00  0.91  0.00  0.06  0.00  0.00  0.00
  WS02006248WS02006247    1.00   0.02  0.00  0.00  0.97  0.00  0.00  0.00  0.18  0.00
  WS02006247WS02006245    1.00   0.02  0.00  0.00  0.98  0.00  0.00  0.00  0.00  0.00
  WS02006245WS02006243    1.00   0.01  0.00  0.00  0.94  0.00  0.00  0.04  0.01  0.00
  WS02006243WS02006242    1.00   0.01  0.00  0.00  0.99  0.00  0.00  0.00  0.26  0.00
  WS02006242WS02006240    1.00   0.00  0.00  0.00  1.00  0.00  0.00  0.00  0.00  0.00
  WS02006240WS02006239    1.00   0.00  0.00  0.00  0.95  0.00  0.00  0.04  0.01  0.00
  WS02006239WS02006238    1.00   0.00  0.00  0.00  1.00  0.00  0.00  0.00  0.01  0.00
  WS02006238WS02006235    1.00   0.00  0.00  0.00  1.00  0.00  0.00  0.00  0.00  0.00
  WS02006235WS02006234    1.00   0.00  0.00  0.00  0.95  0.00  0.05  0.00  0.00  0.00
  WS02006234WS02006232    1.00   0.00  0.00  0.00  1.00  0.00  0.00  0.00  0.16  0.00
  WS02006232WS02006231    1.00   0.00  0.00  0.00  0.99  0.00  0.00  0.00  0.00  0.00
  WS02006231WS02006230    1.00   0.00  0.00  0.00  0.33  0.00  0.66  0.00  0.00  0.00
  WS02006230WS02006229    1.00   0.00  0.00  0.00  0.98  0.00  0.00  0.02  0.01  0.00
  WS02006228WS02006109    1.00   0.00  0.00  0.00  1.00  0.00  0.00  0.00  0.00  0.00
  WS02006116WS02004401    1.00   0.03  0.00  0.00  0.97  0.00  0.00  0.00  0.00  0.00
  WS02006115WS02006116    1.00   0.03  0.00  0.00  0.97  0.00  0.00  0.01  0.00  0.00
  WS02006113WS02006111    1.00   0.02  0.00  0.00  0.00  0.98  0.00  0.00  0.11  0.00
  WS02006112WS02006115    1.00   0.02  0.00  0.00  0.97  0.00  0.00  0.00  0.00  0.00
  WS02006111WS02006112    1.00   0.02  0.00  0.00  0.97  0.00  0.00  0.00  0.98  0.00
  WS02006110WS02006113    1.00   0.01  0.01  0.00  0.98  0.00  0.00  0.00  0.00  0.00
  WS02006109WS02006110    1.00   0.00  0.01  0.00  0.98  0.00  0.01  0.00  0.00  0.00
  WS02004411WS02004412    1.00   0.04  0.00  0.00  0.96  0.00  0.00  0.00  0.00  0.00
  WS02004401WS02004402    1.00   0.03  0.00  0.00  0.97  0.00  0.00  0.00  0.00  0.00
  WS02004413WS02003067    1.00   0.04  0.01  0.00  0.00  0.00  0.94  0.00  0.00  0.00
  WS02004412WS02004413    1.00   0.04  0.00  0.00  0.96  0.00  0.00  0.00  0.03  0.00
  WS02004410WS02004411    1.00   0.04  0.00  0.00  0.96  0.00  0.00  0.00  0.04  0.00
  WS02004409WS02004410    1.00   0.04  0.00  0.00  0.96  0.00  0.00  0.00  0.04  0.00
  WS02004407WS02004409    1.00   0.04  0.00  0.00  0.96  0.00  0.00  0.00  0.89  0.00
  WS02004406WS02004407    1.00   0.00  0.04  0.00  0.96  0.00  0.00  0.00  0.00  0.00
  WS02004405WS02004406    1.00   0.00  0.00  0.00  1.00  0.00  0.00  0.00  0.00  0.00
  WS02004404WS02004405    1.00   0.00  0.00  0.00  1.00  0.00  0.00  0.00  0.00  0.00
  WS02004403WS02004404    1.00   0.00  0.03  0.00  0.97  0.00  0.00  0.00  0.01  0.00
  WS02004402WS02004403    1.00   0.03  0.00  0.00  0.97  0.00  0.00  0.00  0.00  0.00
  WS02004139WS02001211    1.00   0.00  0.00  0.00  0.99  0.00  0.01  0.00  0.00  0.00
  WS02004138WS02004139    1.00   0.00  0.00  0.00  0.99  0.01  0.00  0.00  1.00  0.00
  WS02003067WS02003066    1.00   0.06  0.00  0.00  0.94  0.00  0.00  0.00  0.00  0.00
  WS02001213WS02003059    1.00   0.00  0.01  0.00  0.99  0.00  0.00  0.00  0.00  0.00
  WS02001212WS02001213    1.00   0.01  0.00  0.00  0.90  0.00  0.10  0.00  0.00  0.00
  WS02001211WS02001212    1.00   0.00  0.01  0.00  0.99  0.00  0.00  0.00  0.00  0.00
  WS02003072WS02003073    1.00   0.00  0.00  0.00  0.00  0.00  0.00  1.00  0.00  0.00
  WS02003069WS02003072    1.00   0.00  0.00  0.00  0.99  0.01  0.00  0.00  0.28  0.00
  WS02003060WS02003069    1.00   0.00  0.00  0.00  0.99  0.01  0.00  0.00  0.23  0.00
  WS02003059WS02003060    1.00   0.00  0.00  0.00  1.00  0.00  0.00  0.00  0.02  0.00
  HS02004901HS02004770    1.00   0.05  0.00  0.00  0.95  0.00  0.00  0.00  0.03  0.00
  HS02004876HS02004881    1.00   0.02  0.00  0.00  0.98  0.00  0.00  0.00  0.00  0.00
  HS02004870HS02004876    1.00   0.01  0.00  0.00  0.99  0.00  0.00  0.00  0.95  0.00
  HS02004842HS02004848    1.00   0.00  0.05  0.00  0.95  0.00  0.00  0.00  0.68  0.00
  HS02004837HS02004842    1.00   0.00  0.00  0.00  0.99  0.01  0.00  0.00  0.11  0.00
  HS02004830HS02004837    1.00   0.00  0.00  0.00  1.00  0.00  0.00  0.00  0.99  0.00
  HS02004824HS02004830    1.00   0.00  0.00  0.00  1.00  0.00  0.00  0.00  0.00  0.00
  HS02004817HS02004824    1.00   0.00  0.00  0.00  1.00  0.00  0.00  0.00  1.00  0.00
  HS02004770HS02004777    1.00   0.00  0.05  0.00  0.95  0.00  0.00  0.00  0.07  0.00
  HS02004799HS02004480    1.00   0.00  0.03  0.00  0.94  0.00  0.03  0.00  0.00  0.00
  HS02004792HS02004799    1.00   0.00  0.00  0.00  0.99  0.01  0.00  0.00  0.98  0.00
  HS02004788HS02004792    1.00   0.00  0.00  0.00  0.99  0.01  0.00  0.00  0.98  0.00
  HS02004785HS02004788    1.00   0.00  0.00  0.00  1.00  0.00  0.00  0.00  0.00  0.00
  HS02004777HS02004785    1.00   0.00  0.00  0.00  1.00  0.00  0.00  0.00  0.21  0.00
  HS02004480HS02004478    1.00   0.05  0.00  0.00  0.75  0.00  0.00  0.20  0.00  0.00
  HS02004479HS02004480    1.00   0.03  0.00  0.00  0.97  0.00  0.00  0.00  0.16  0.00
  HS02004862HS02004870    1.00   0.00  0.00  0.00  1.00  0.00  0.00  0.00  0.05  0.00
  HS02004848HS02004852    1.00   0.05  0.00  0.00  0.95  0.00  0.00  0.00  0.71  0.00
  HS02004856HS02004862    1.00   0.00  0.07  0.00  0.93  0.00  0.00  0.00  0.74  0.00
  HS02004852HS02004856    1.00   0.05  0.01  0.00  0.95  0.00  0.00  0.00  0.82  0.00
  HS02004802HS02004478    1.00   0.05  0.01  0.00  0.95  0.00  0.00  0.00  0.00  0.00
  HS02004478WS02006287    1.00   0.06  0.00  0.00  0.87  0.07  0.00  0.00  0.76  0.00
  HS02004817HS02004807    1.00   0.00  0.05  0.00  0.95  0.00  0.00  0.00  0.00  0.00
  HS02004807HS02004802    1.00   0.05  0.00  0.00  0.95  0.00  0.00  0.00  0.01  0.00
  YS02001759YS02001757    1.00   0.00  0.00  0.00  1.00  0.00  0.00  0.00  0.17  0.00
  YS02001762YS02001759    1.00   0.00  0.00  0.00  1.00  0.00  0.00  0.00  0.05  0.00
  YS02001765YS02001762    1.00   0.00  0.00  0.00  1.00  0.00  0.00  0.00  0.22  0.00
  YS02001770YS02001767    1.00   0.00  0.00  0.00  1.00  0.00  0.00  0.00  0.00  0.00
  YS02001774YS02001770    1.00   0.00  0.05  0.00  0.94  0.00  0.00  0.00  0.06  0.00
  YS02001779YS02001774    1.00   0.00  0.00  0.00  1.00  0.00  0.00  0.00  0.26  0.00
  YS02001649YS02001757    1.00   0.00  0.00  0.00  1.00  0.00  0.00  0.00  0.19  0.00
  YS02001767YS02001765    1.00   0.00  0.00  0.00  1.00  0.00  0.00  0.00  0.01  0.00
  YS02006561YS02001783    1.00   0.07  0.00  0.00  0.00  0.93  0.00  0.00  0.70  0.00
  YS02001783YS02001784    1.00   0.00  0.07  0.00  0.93  0.00  0.00  0.00  0.00  0.00
  YS02001784YS02001785    1.00   0.00  0.00  0.00  1.00  0.00  0.00  0.00  0.25  0.00
  YS02001788YS02001790    1.00   0.00  0.00  0.00  0.07  0.93  0.00  0.00  0.75  0.00
  YS02001790YS02001791    1.00   0.00  0.00  0.00  0.02  0.98  0.00  0.00  0.57  0.00
  YS02001791YS02001793    1.00   0.00  0.00  0.00  0.00  1.00  0.00  0.00  0.00  0.00
  YS02001910YS02001907    1.00   0.00  0.00  0.00  0.97  0.00  0.00  0.03  0.13  0.00
  YS02001786YS02001788    1.00   0.00  0.00  0.00  0.08  0.92  0.00  0.00  0.00  0.00
  YS02001915YS02001910    1.00   0.00  0.00  0.00  0.99  0.01  0.00  0.00  0.24  0.00
  YS02001918YS02001915    1.00   0.00  0.01  0.00  0.98  0.02  0.00  0.00  0.75  0.00
  YS02001923YS02001920    1.00   0.00  0.00  0.00  1.00  0.00  0.00  0.00  1.00  0.00
  YS02001926YS02001923    1.00   0.00  0.04  0.00  0.00  0.00  0.96  0.00  0.00  0.00
  YS02001929YS02001926    1.00   0.00  0.05  0.00  0.95  0.00  0.00  0.00  0.86  0.00
  YS02001920YS02001918    1.00   0.00  0.01  0.00  0.99  0.00  0.00  0.00  0.00  0.00
  YS02001629YS02163301    1.00   0.06  0.00  0.00  0.93  0.00  0.00  0.00  0.00  0.00
  YS02001619YS02001622    1.00   0.05  0.00  0.00  0.95  0.00  0.00  0.00  0.00  0.00
  YS02001622YS02001625    1.00   0.05  0.00  0.00  0.95  0.00  0.00  0.00  0.13  0.00
  YS02001625YS02001629    1.00   0.05  0.03  0.00  0.92  0.00  0.01  0.00  0.00  0.00
  YS02163301YS02001633    1.00   0.00  0.06  0.00  0.94  0.00  0.00  0.00  0.00  0.00
  YS02163601YS02164001    1.00   0.00  0.04  0.00  0.96  0.00  0.00  0.00  0.00  0.00
  YS02164001YS02001641    1.00   0.01  0.03  0.00  0.96  0.00  0.00  0.00  0.07  0.00
  YS02001641YS02001644    1.00   0.00  0.01  0.00  0.99  0.00  0.00  0.00  0.00  0.00
  YS02001647YS02001649    1.00   0.00  0.07  0.00  0.93  0.00  0.00  0.00  0.01  0.00
  YS02006553YS02006556    1.00   0.01  0.00  0.00  0.99  0.00  0.00  0.00  0.03  0.00
  YS02006556YS02006558    1.00   0.00  0.00  0.00  1.00  0.00  0.00  0.00  0.00  0.00
  YSB6556YSB1171          1.00   0.03  0.02  0.00  0.96  0.00  0.00  0.00  0.00  0.00
  YS02001907YS02006553    1.00   0.00  0.02  0.00  0.97  0.00  0.00  0.00  0.00  0.00
  YS02006558YS02006561    1.00   0.07  0.00  0.00  0.00  0.93  0.00  0.00  0.67  0.00
  YS02001633YS02163601    1.00   0.00  0.01  0.00  0.99  0.00  0.00  0.00  0.20  0.00
  YS02001644YS02001647    1.00   0.00  0.07  0.00  0.93  0.00  0.00  0.00  0.00  0.00
  YS02001745YS02001748    1.00   0.00  0.00  0.00  0.88  0.01  0.00  0.11  0.16  0.00
  YS02001748YS02001751    1.00   0.00  0.00  0.00  0.98  0.02  0.00  0.00  0.24  0.00
  YS02001751YS02001754    1.00   0.00  0.00  0.00  0.92  0.00  0.00  0.07  0.01  0.00
  YS02001754YS02001757    1.00   0.00  0.00  0.00  0.99  0.01  0.00  0.00  0.26  0.00
  YS02001882YS02001884    1.00   0.06  0.00  0.00  0.94  0.00  0.00  0.00  0.00  0.00
  YS02001884YS02001887    1.00   0.03  0.01  0.00  0.96  0.00  0.00  0.00  0.00  0.00
  YS02001890YS02001895    1.00   0.00  0.06  0.00  0.93  0.00  0.00  0.00  0.00  0.00
  YS02001895YS02001898    1.00   0.07  0.00  0.00  0.93  0.00  0.01  0.00  0.00  0.00
  YS02001898YS02001901    1.00   0.06  0.00  0.00  0.93  0.00  0.00  0.00  0.02  0.00
  YS02001901YS02001904    1.00   0.06  0.00  0.00  0.94  0.00  0.00  0.00  0.00  0.00
  YS02001904YS02001907    1.00   0.00  0.06  0.00  0.94  0.00  0.00  0.00  0.00  0.00
  YS02001887YS02001890    1.00   0.00  0.00  0.00  0.97  0.00  0.02  0.00  0.00  0.00
  YS02001652YS02001649    1.00   0.00  0.00  0.00  1.00  0.00  0.00  0.00  0.26  0.00
  YS02001655YS02001652    1.00   0.00  0.00  0.00  0.92  0.00  0.00  0.07  0.02  0.00
  YS02001658YS02001655    1.00   0.00  0.06  0.00  0.92  0.02  0.00  0.00  0.09  0.00
  YS02001661YS02001658    1.00   0.06  0.00  0.00  0.88  0.07  0.00  0.00  0.17  0.00
  YS02001664YS02001661    1.00   0.05  0.00  0.00  0.75  0.21  0.00  0.00  0.86  0.00
  YSB1154YSB6556          1.00   0.04  0.00  0.00  0.96  0.00  0.00  0.00  0.02  0.00
  YSB1174YSB1171          1.00   0.03  0.01  0.00  0.96  0.00  0.00  0.00  0.00  0.00
  YSB1171HS02004479       1.00   0.03  0.00  0.00  0.97  0.00  0.00  0.00  0.13  0.00
  HS02004881HS02006253    1.00   0.03  0.00  0.00  0.86  0.01  0.00  0.10  0.67  0.00
  YS02001793JiankangQianchi    1.00   0.00  0.00  0.00  0.25  0.75  0.00  0.00  0.22  0.00
  YS02001757CaochengTiaoxuchi    1.00   0.00  0.08  0.00  0.92  0.00  0.00  0.00  0.00  0.00
  WSF200WS02003060        1.00   0.00  0.06  0.00  0.72  0.22  0.00  0.00  0.08  0.00
  1                       1.00   0.00  0.00  0.00  0.00  1.00  0.00  0.00  0.60  0.00
  2                       1.00   1.00  0.00  0.00  0.00  0.00  0.00  0.00  0.00  0.00
  3                       1.00   0.33  0.00  0.00  0.00  0.67  0.00  0.00  0.27  0.00
  4                       1.00   1.00  0.00  0.00  0.00  0.00  0.00  0.00  0.00  0.00
  
  
  *************************
  Conduit Surcharge Summary
  *************************
  
  ----------------------------------------------------------------------------
                                                           Hours        Hours 
                         --------- Hours Full --------   Above Full   Capacity
  Conduit                Both Ends  Upstream  Dnstream   Normal Flow   Limited
  ----------------------------------------------------------------------------
  WS02006229WS02006228        0.55      0.61      0.55      4.37         0.55
  WS02006256WS02006235        5.71      5.71      6.32      3.61         0.01
  WS02006249WS02006248        0.01      0.01      0.01      5.19         0.01
  WS02006247WS02006245        0.01      0.01      0.01      5.22         0.01
  WS02006235WS02006234        0.01      0.01      0.01      5.73         0.01
  WS02006231WS02006230        0.01      0.01      0.01      5.72         0.01
  WS02006230WS02006229        1.41      3.36      1.41      5.81         1.41
  WS02006228WS02006109        0.58      0.97      0.58      5.59         0.58
  WS02006111WS02006112        0.01      0.01      5.06      0.01         0.01
  WS02006110WS02006113        0.01      0.01      0.76      0.01         0.01
  WS02006109WS02006110        0.01      0.01      0.98      0.01         0.01
  WS02004404WS02004405        0.01      0.01      0.01      5.63         0.01
  WS02003072WS02003073        0.01      0.01      0.01      5.38         0.01
  YS02001759YS02001757        5.27      5.27      5.38      0.01         0.01
  YS02001762YS02001759        5.23      5.23      5.27      0.01         0.01
  YS02001765YS02001762        5.17      5.17      5.23      0.01         0.01
  YS02001770YS02001767        5.08      5.08      5.09      0.01         0.73
  YS02001774YS02001770        4.97      4.97      5.20      0.01         0.01
  YS02001779YS02001774        3.35      3.35      5.20      0.01         0.01
  YS02001649YS02001757        5.24      5.24      5.38      0.01         0.01
  YS02001767YS02001765        5.09      5.09      5.17      0.01         0.01
  YS02001629YS02163301        4.89      4.89      5.04      0.01         0.01
  YS02001622YS02001625        0.01      0.01      4.32      0.01         0.01
  YS02001625YS02001629        0.01      0.01      4.32      0.01         0.01
  YS02163301YS02001633        5.04      5.04      5.18      0.01         0.01
  YS02163601YS02164001        5.17      5.17      5.24      0.01         0.01
  YS02164001YS02001641        5.17      5.17      5.20      0.01         0.01
  YS02001641YS02001644        5.20      5.20      5.20      0.01         0.38
  YS02001647YS02001649        4.25      4.25      5.24      0.01         0.01
  YS02001633YS02163601        5.15      5.15      5.24      0.01         0.01
  YS02001644YS02001647        4.25      4.25      5.20      0.01         0.01
  YS02001748YS02001751        0.01      0.01      0.02      0.01         0.01
  YS02001751YS02001754        0.02      0.02      3.82      0.01         0.01
  YS02001754YS02001757        4.25      4.25      5.38      0.01         0.01
  YS02001652YS02001649        4.33      4.33      5.24      0.01         0.01
  YS02001655YS02001652        0.04      0.04      4.14      0.01         0.01
  YS02001658YS02001655        0.01      0.01      0.04      0.01         0.01
  YS02001793JiankangQianchi        0.01      0.01      1.24      0.01         0.01
  YS02001757CaochengTiaoxuchi        0.01      0.01      5.38      0.01         0.01
  
  
  ***************
  Pumping Summary
  ***************
  
  ---------------------------------------------------------------------------------------------------------
                                                  Min       Avg       Max     Total     Power    % Time Off
                        Percent   Number of      Flow      Flow      Flow    Volume     Usage    Pump Curve
  Pump                 Utilized   Start-Ups       LPS       LPS       LPS  10^6 ltr     Kw-hr    Low   High
  ---------------------------------------------------------------------------------------------------------
  CC-Pump-1               68.08           1      0.00    197.01    200.00     3.780      9.54    0.0    8.9
  CC-Pump-2                0.00           0      0.00      0.00      0.00     0.000      0.00    0.0    0.0
  JK-Pump-1              100.00           1      0.00    163.67    300.00     3.626     62.84    0.0    0.0
  JK-Pump-2                4.25           1      0.00      1.30      1.36     0.002      0.03    0.0    0.0
  XR-Pump-1               29.78           2      0.00     81.83     95.00     0.713      6.90    0.0    0.0
  XR-Pump-2               76.59           2      0.00     93.00     95.00     1.966      9.80    0.0    0.0
  XR-Pump-3               27.64           2      0.00     76.62     95.00     0.627      5.98    0.0    0.0
  XR-Pump-4               80.84           3      0.00     92.57     95.00     2.023     10.39    0.0    0.0
  

  Analysis begun on:  Thu Jan  6 01:28:16 2022
  Analysis ended on:  Thu Jan  6 01:28:20 2022
  Total elapsed time: 00:00:04