
  EPA STORM WATER MANAGEMENT MODEL - VERSION 5.1 (Build 5.3.0.dev0)
  --------------------------------------------------------------

  WARNING 04: minimum elevation drop used for Conduit WS02004404WS02004405
  WARNING 03: negative offset ignored for Link YS02001904YS02001907
  
  *********************************************************
  NOTE: The summary statistics displayed in this report are
  based on results found at every computational time step,  
  not just on results from each reporting time step.
  *********************************************************
  
  ****************
  Analysis Options
  ****************
  Flow Units ............... LPS
  Process Models:
    Rainfall/Runoff ........ YES
    RDII ................... NO
    Snowmelt ............... NO
    Groundwater ............ NO
    Flow Routing ........... YES
    Ponding Allowed ........ NO
    Water Quality .......... NO
  Infiltration Method ...... HORTON
  Flow Routing Method ...... DYNWAVE
  Surcharge Method ......... EXTRAN
  Starting Date ............ 08/28/2015 08:00:00
  Ending Date .............. 08/28/2015 15:50:00
  Antecedent Dry Days ...... 8.0
  Report Time Step ......... 00:01:00
  Wet Time Step ............ 00:01:00
  Dry Time Step ............ 00:01:00
  Routing Time Step ........ 5.00 sec
  Variable Time Step ....... YES
  Maximum Trials ........... 8
  Number of Threads ........ 4
  Head Tolerance ........... 0.001500 m
  
  
  **************************        Volume         Depth
  Runoff Quantity Continuity     hectare-m            mm
  **************************     ---------       -------
  Total Precipitation ......        10.887        23.836
  Evaporation Loss .........         0.000         0.000
  Infiltration Loss ........         2.344         5.132
  Surface Runoff ...........         7.303        15.990
  Final Storage ............         1.241         2.717
  Continuity Error (%) .....        -0.012
  
  
  **************************        Volume        Volume
  Flow Routing Continuity        hectare-m      10^6 ltr
  **************************     ---------     ---------
  Dry Weather Inflow .......         0.616         6.165
  Wet Weather Inflow .......         7.302        73.018
  Groundwater Inflow .......         0.000         0.000
  RDII Inflow ..............         0.000         0.000
  External Inflow ..........         0.102         1.024
  External Outflow .........         1.672        16.716
  Flooding Loss ............         5.760        57.598
  Evaporation Loss .........         0.000         0.000
  Exfiltration Loss ........         0.000         0.000
  Initial Stored Volume ....         0.076         0.761
  Final Stored Volume ......         0.669         6.691
  Continuity Error (%) .....        -0.048
  
  
  *************************
  Highest Continuity Errors
  *************************
  Node YS02001884 (10.50%)
  Node HS02004842 (8.73%)
  Node HS02004817 (1.69%)
  Node YSB1171 (1.47%)
  Node YS02163301 (1.27%)
  
  
  ***************************
  Time-Step Critical Elements
  ***************************
  Link 3 (54.67%)
  Link WS02006252WS02006251 (35.60%)
  Link WS02004404WS02004405 (2.80%)
  Link WS02006280WS02006229 (1.48%)
  Link WS02006238WS02006235 (1.14%)
  
  
  ********************************
  Highest Flow Instability Indexes
  ********************************
  Link WS02006113WS02006111 (42)
  Link YS02163301YS02001633 (32)
  Link YS02163601YS02164001 (31)
  Link YS02001619YS02001622 (31)
  Link YS02001629YS02163301 (30)
  
  
  *************************
  Routing Time Step Summary
  *************************
  Minimum Time Step           :     0.43 sec
  Average Time Step           :     0.86 sec
  Maximum Time Step           :     5.00 sec
  Percent in Steady State     :    -0.00
  Average Iterations per Step :     3.67
  Percent Not Converging      :    10.31
  
  
  ***************************
  Subcatchment Runoff Summary
  ***************************
  
  ------------------------------------------------------------------------------------------------------------------------------
                            Total      Total      Total      Total     Imperv       Perv      Total       Total     Peak  Runoff
                           Precip      Runon       Evap      Infil     Runoff     Runoff     Runoff      Runoff   Runoff   Coeff
  Subcatchment                 mm         mm         mm         mm         mm         mm         mm    10^6 ltr      LPS
  ------------------------------------------------------------------------------------------------------------------------------
  sub0                      23.84       0.00       0.00       1.03      20.90       0.64      21.54        0.02     4.74   0.904
  sub1                      23.84       0.00       0.00       1.74      19.95       0.88      20.83        0.14    30.53   0.874
  sub2                      23.84       0.00       0.00       6.87      14.10       1.95      16.05        0.15    28.29   0.673
  sub3                      23.84       0.00       0.00       7.14      14.06       1.68      15.74        0.35    61.76   0.660
  sub4                      23.84       0.00       0.00       1.87      19.78       0.75      20.54        0.43    72.83   0.862
  sub5                      23.84       0.00       0.00       1.08      20.85       0.59      21.44        0.24    54.28   0.899
  sub7                      23.84       0.00       0.00       1.37      20.44       0.77      21.21        0.07    17.57   0.890
  sub8                      23.84       0.00       0.00       1.38      20.42       0.76      21.19        0.14    32.08   0.889
  sub9                      23.84       0.00       0.00       1.39      20.42       0.76      21.18        0.10    23.95   0.889
  sub10                     23.84       0.00       0.00       1.24      20.63       0.67      21.30        0.23    53.40   0.894
  sub11                     23.84       0.00       0.00       1.22      20.65       0.69      21.34        0.25    59.71   0.895
  sub12                     23.84       0.00       0.00       1.98      19.55       1.11      20.66        0.18    46.17   0.867
  sub14                     23.84       0.00       0.00       1.39      20.42       0.76      21.18        0.20    47.08   0.888
  sub15                     23.84       0.00       0.00       5.16      15.70       1.99      17.70        0.30    64.58   0.742
  sub16                     23.84       0.00       0.00       5.46      15.05       2.40      17.45        0.18    41.69   0.732
  sub17                     23.84       0.00       0.00       5.32      15.27       2.31      17.58        0.15    34.22   0.738
  sub22                     23.84       0.00       0.00       7.63      12.80       2.62      15.42        0.97   202.91   0.647
  sub23                     23.84       0.00       0.00       6.37      14.15       2.45      16.60        0.79   171.10   0.696
  sub60                     23.84       0.00       0.00       2.46      17.68       0.40      18.08        5.48   635.50   0.759
  sub61                     23.84       0.00       0.00       3.48      17.44       0.57      18.00        5.55   687.97   0.755
  sub62                     23.84       0.00       0.00       1.52      19.11       0.39      19.50        5.99   726.55   0.818
  sub63                     23.84       0.00       0.00       6.22      15.11       0.70      15.81        4.78   606.27   0.663
  sub64                     23.84       0.00       0.00       3.15      17.01       0.42      17.43        5.30   611.50   0.731
  sub65                     23.84       0.00       0.00       2.70      17.34       0.40      17.73        5.45   625.37   0.744
  sub66                     23.84       0.00       0.00       6.42      14.44       0.49      14.93        4.58   541.58   0.626
  sub67                     23.84       0.00       0.00       1.46      19.71       0.45      20.16        6.22   787.40   0.846
  sub68                     23.84       0.00       0.00       2.78      18.22       0.56      18.78        5.78   724.10   0.788
  sub69                     23.84       0.00       0.00       2.86      18.50       0.72      19.22        4.49   586.55   0.806
  sub70                     23.84      19.62       0.00       9.95      26.14       3.78      29.92        6.85   801.71   0.689
  sub71                     23.84       0.00       0.00       1.54      18.81       0.36      19.18        4.53   536.91   0.805
  sub72                     23.84       0.00       0.00       1.45      16.32       0.22      16.55        3.37   330.66   0.694
  sub73                     23.84      29.13       0.00       9.95      31.58       5.28      36.86        8.66   884.85   0.696
  sub74                     23.84       0.00       0.00      17.30       5.48       0.57       6.05        2.42   323.16   0.254
  
  
  ******************
  Node Depth Summary
  ******************
  
  ---------------------------------------------------------------------------------
                                 Average  Maximum  Maximum  Time of Max    Reported
                                   Depth    Depth      HGL   Occurrence   Max Depth
  Node                 Type       Meters   Meters   Meters  days hr:min      Meters
  ---------------------------------------------------------------------------------
  WS02001211           JUNCTION     0.57     0.70     5.53     0  01:53        0.70
  WS02001212           JUNCTION     0.32     0.45     5.51     0  01:52        0.45
  WS02001213           JUNCTION     0.56     0.73     5.49     0  01:51        0.73
  WS02003069           JUNCTION     0.41     0.61     5.20     0  01:53        0.61
  WS02003072           JUNCTION     0.47     0.67     5.04     0  01:53        0.67
  WS02003073           JUNCTION     0.28     0.41     4.48     0  01:54        0.41
  WS02003060           JUNCTION     0.36     0.54     5.47     0  01:52        0.54
  WS02003066           JUNCTION     0.24     0.37     5.92     0  01:42        0.37
  WS02003059           JUNCTION     0.62     0.80     5.49     0  01:52        0.80
  WS02003067           JUNCTION     0.58     0.80     6.12     0  01:39        0.80
  WS02004401           JUNCTION     0.72     1.18     7.18     0  01:33        1.16
  WS02004402           JUNCTION     0.74     1.19     7.15     0  01:33        1.16
  WS02004403           JUNCTION     0.76     1.15     7.08     0  01:33        1.14
  WS02004404           JUNCTION     0.83     1.20     7.05     0  01:36        1.19
  WS02004406           JUNCTION     0.83     1.14     6.97     0  01:33        1.13
  WS02004409           JUNCTION     0.52     0.90     6.67     0  01:39        0.90
  WS02004410           JUNCTION     0.54     0.89     6.61     0  01:40        0.89
  WS02004411           JUNCTION     0.55     0.88     6.56     0  01:39        0.88
  WS02004412           JUNCTION     0.56     0.86     6.50     0  01:40        0.86
  WS02004413           JUNCTION     0.71     1.00     6.47     0  01:40        1.00
  WS02004405           JUNCTION     0.82     1.18     7.03     0  01:33        1.17
  WS02006109           JUNCTION     0.81     1.37     7.98     0  01:37        1.36
  WS02006110           JUNCTION     0.78     1.20     7.78     0  01:37        1.18
  WS02006111           JUNCTION     0.27     0.73     7.44     0  01:37        0.73
  WS02006112           JUNCTION     0.90     1.47     7.35     0  01:37        1.46
  WS02006113           JUNCTION     0.36     0.70     7.60     0  01:37        0.70
  WS02006115           JUNCTION     0.62     1.14     7.28     0  01:35        1.13
  WS02006116           JUNCTION     0.70     1.19     7.23     0  01:35        1.18
  WS02006230           JUNCTION     0.78     1.51     8.25     0  01:37        1.50
  WS02006231           JUNCTION     0.54     1.20     8.32     0  01:29        1.12
  WS02006232           JUNCTION     0.66     1.21     8.25     0  01:37        1.20
  WS02006234           JUNCTION     0.56     1.12     8.28     0  01:32        1.09
  WS02006235           JUNCTION     0.58     1.13     8.29     0  01:32        1.07
  WS02006238           JUNCTION     0.60     1.16     8.30     0  01:32        1.11
  WS02006240           JUNCTION     0.47     1.14     8.43     0  01:32        0.96
  WS02006242           JUNCTION     0.52     1.55     8.82     0  01:30        0.98
  WS02006243           JUNCTION     0.38     1.12     8.54     0  01:32        0.84
  WS02006245           JUNCTION     0.35     0.99     8.47     0  01:32        0.78
  WS02006247           JUNCTION     0.36     1.25     8.75     0  01:32        0.82
  WS02006248           JUNCTION     0.31     0.69     8.28     0  01:40        0.69
  WS02006249           JUNCTION     0.33     0.68     8.28     0  01:40        0.68
  WS02006239           JUNCTION     0.55     1.19     8.40     0  01:30        1.04
  WS02006251           JUNCTION     0.31     0.68     8.35     0  01:40        0.68
  WS02006252           JUNCTION     0.21     0.35     8.59     0  03:10        0.35
  WS02006253           JUNCTION     0.34     0.72     8.36     0  01:40        0.72
  WS02006256           JUNCTION     1.04     1.17     8.10     0  01:37        1.17
  WS02004138           JUNCTION     0.11     0.14     7.39     0  00:40        0.14
  WS02004407           JUNCTION     0.23     0.38     6.69     0  01:37        0.38
  WS02006228           JUNCTION     0.82     1.50     8.15     0  01:36        1.49
  WS02006229           JUNCTION     0.81     1.55     8.24     0  01:37        1.55
  WS02006280           JUNCTION     0.10     0.29     8.56     0  01:36        0.29
  WS02006284           JUNCTION     0.42     0.68     9.08     0  01:36        0.68
  WS02006287           JUNCTION     0.15     0.43     9.38     0  01:35        0.43
  WSF200               JUNCTION     0.23     0.39     5.63     0  01:45        0.39
  HS02004901           JUNCTION     0.17     0.40    10.23     0  01:33        0.40
  HS02004881           JUNCTION     0.02     0.06     9.09     0  01:36        0.06
  HS02004876           JUNCTION     0.06     0.18     9.21     0  01:36        0.18
  HS02004870           JUNCTION     0.03     0.11     9.39     0  01:36        0.11
  HS02004862           JUNCTION     0.04     0.12     9.50     0  01:37        0.12
  HS02004856           JUNCTION     0.09     0.16     9.59     0  01:37        0.16
  HS02004852           JUNCTION     0.02     0.09     9.60     0  01:37        0.09
  HS02004848           JUNCTION     0.02     0.08     9.68     0  01:37        0.08
  HS02004842           JUNCTION     0.34     0.41     9.68     0  01:37        0.41
  HS02004837           JUNCTION     0.04     0.10     9.68     0  01:37        0.10
  HS02004830           JUNCTION     0.05     0.13     9.60     0  01:36        0.13
  HS02004824           JUNCTION     0.04     0.17     9.57     0  01:35        0.17
  HS02004817           JUNCTION     0.49     0.74     9.59     0  01:35        0.74
  HS02004807           JUNCTION     0.17     0.41     9.58     0  01:35        0.41
  HS02004802           JUNCTION     0.21     0.44     9.56     0  01:36        0.44
  HS02004799           JUNCTION     0.18     0.51     9.72     0  01:34        0.51
  HS02004792           JUNCTION     0.07     0.24     9.76     0  01:33        0.24
  HS02004788           JUNCTION     0.05     0.17    10.07     0  01:34        0.17
  HS02004785           JUNCTION     0.08     0.27    10.17     0  01:33        0.27
  HS02004777           JUNCTION     0.19     0.41    10.21     0  01:33        0.41
  HS02004770           JUNCTION     0.16     0.39    10.22     0  01:33        0.39
  HS02004480           JUNCTION     0.14     0.42     9.66     0  01:34        0.42
  HS02004479           JUNCTION     0.17     0.46     9.66     0  01:34        0.46
  HS02004478           JUNCTION     0.10     0.32     9.54     0  01:35        0.32
  YS02001745           JUNCTION     0.82     1.04     8.56     0  03:01        1.04
  YS02001748           JUNCTION     1.23     2.27     9.35     0  01:32        1.46
  YS02001751           JUNCTION     1.41     2.20     9.08     0  01:32        1.64
  YS02001754           JUNCTION     1.66     2.14     8.75     0  01:32        1.89
  YS02001762           JUNCTION     1.86     2.07     8.47     0  02:45        2.07
  YS02001765           JUNCTION     1.81     2.02     8.47     0  03:01        2.02
  YS02001767           JUNCTION     1.77     1.97     8.46     0  02:45        1.97
  YS02001770           JUNCTION     1.77     1.95     8.44     0  02:24        1.95
  YS02001774           JUNCTION     1.83     2.01     8.43     0  01:32        1.99
  YS02001779           JUNCTION     1.56     1.68     8.37     0  01:31        1.68
  YS02001882           JUNCTION     0.86     1.67     8.39     0  01:37        1.63
  YS02001884           JUNCTION     0.95     1.76     8.38     0  01:37        1.73
  YS02001759           JUNCTION     1.89     2.11     8.48     0  02:45        2.11
  YS02001887           JUNCTION     1.03     1.82     8.36     0  01:37        1.81
  YS02001890           JUNCTION     1.05     1.81     8.32     0  01:37        1.81
  YS02001898           JUNCTION     0.82     1.58     8.31     0  01:37        1.56
  YS02001901           JUNCTION     0.93     1.69     8.30     0  01:37        1.67
  YS02001904           JUNCTION     0.91     1.65     8.28     0  01:37        1.63
  YS02001907           JUNCTION     1.23     1.96     8.25     0  01:37        1.96
  YS02001910           JUNCTION     1.03     1.91     8.42     0  01:37        1.79
  YS02001915           JUNCTION     0.84     1.86     8.58     0  01:37        1.62
  YS02001918           JUNCTION     0.57     1.71     8.77     0  01:37        1.32
  YS02001619           JUNCTION     1.35     1.61     8.54     0  01:31        1.50
  YS02001629           JUNCTION     1.70     1.85     8.40     0  01:31        1.85
  YS02001641           JUNCTION     1.80     1.95     8.38     0  01:32        1.93
  YS02001644           JUNCTION     1.80     1.92     8.35     0  01:32        1.92
  YS02001652           JUNCTION     1.67     2.16     8.76     0  01:33        1.91
  YS02001655           JUNCTION     1.43     2.20     9.05     0  01:32        1.72
  YS02001920           JUNCTION     0.67     1.69     8.70     0  01:39        1.40
  YS02001923           JUNCTION     0.48     1.49     8.75     0  01:39        1.18
  YS02001926           JUNCTION     0.47     1.28     8.72     0  01:39        1.08
  YS02001929           JUNCTION     0.31     0.89     8.59     0  01:39        0.88
  YS02001658           JUNCTION     1.16     2.30     9.44     0  01:32        1.62
  YS02001661           JUNCTION     0.93     2.46     9.86     0  01:33        1.66
  YS02001664           JUNCTION     0.43     0.68     8.60     0  01:33        0.66
  YS02001622           JUNCTION     1.37     1.62     8.52     0  01:31        1.51
  YS02001633           JUNCTION     1.79     1.97     8.42     0  01:32        1.95
  YS02001649           JUNCTION     1.86     2.05     8.44     0  01:33        2.05
  YS02001757           JUNCTION     1.99     2.21     8.47     0  02:29        2.21
  YS02001895           JUNCTION     0.81     1.57     8.32     0  01:37        1.56
  YS02001625           JUNCTION     1.65     1.78     8.38     0  01:31        1.78
  YS02163301           JUNCTION     1.73     1.90     8.41     0  01:33        1.88
  YS02163601           JUNCTION     1.84     2.01     8.41     0  01:32        1.99
  YS02164001           JUNCTION     1.78     1.94     8.40     0  01:32        1.92
  YS02001647           JUNCTION     1.64     1.83     8.44     0  01:32        1.79
  YSB1154              JUNCTION     0.31     0.61     9.67     0  01:34        0.61
  YSB6556              JUNCTION     0.21     0.50     9.67     0  01:34        0.50
  YSB1174              JUNCTION     0.26     0.56     9.67     0  01:34        0.56
  YSB1171              JUNCTION     0.46     0.76     9.67     0  01:34        0.76
  YS02006553           JUNCTION     1.23     2.15     8.43     0  01:39        1.97
  YS02006561           JUNCTION     0.54     1.76     8.42     0  01:39        1.09
  YS02006556           JUNCTION     1.20     2.35     8.66     0  01:39        1.94
  YS02006558           JUNCTION     1.24     2.47     8.74     0  01:39        1.98
  YS02001783           JUNCTION     0.83     2.27     8.41     0  01:39        1.48
  YS02001784           JUNCTION     0.83     2.28     8.35     0  01:39        1.42
  YS02001786           JUNCTION     0.75     2.23     8.26     0  01:39        1.26
  YS02001788           JUNCTION     0.68     2.28     8.26     0  01:39        1.13
  YS02001790           JUNCTION     0.84     1.96     7.60     0  01:39        1.29
  YS02001791           JUNCTION     0.86     1.95     7.42     0  01:39        1.27
  YS02001793           JUNCTION     1.26     1.88     6.71     0  01:39        1.80
  WS02004139           JUNCTION     0.51     0.63     5.54     0  01:52        0.63
  WSC                  OUTFALL      0.28     0.41     1.08     0  01:54        0.41
  3                    OUTFALL      0.09     0.17     6.17     0  01:37        0.17
  4                    OUTFALL      0.02     0.18     7.18     0  01:40        0.18
  5                    OUTFALL      0.00     0.00     5.00     0  00:00        0.00
  JK-storage           STORAGE      4.83     5.80     6.60     0  01:39        5.80
  CC-storage           STORAGE      1.21     1.48     8.48     0  03:03        1.48
  XR-storage           STORAGE      7.64     7.72     5.72     0  01:18        7.72
  
  
  *******************
  Node Inflow Summary
  *******************
  
  -------------------------------------------------------------------------------------------------
                                  Maximum  Maximum                  Lateral       Total        Flow
                                  Lateral    Total  Time of Max      Inflow      Inflow     Balance
                                   Inflow   Inflow   Occurrence      Volume      Volume       Error
  Node                 Type           LPS      LPS  days hr:min    10^6 ltr    10^6 ltr     Percent
  -------------------------------------------------------------------------------------------------
  WS02001211           JUNCTION      7.35   200.49     0  03:14       0.207        3.97       0.811
  WS02001212           JUNCTION      0.00   203.74     0  03:14           0        3.94       0.393
  WS02001213           JUNCTION      0.00   206.06     0  03:15           0        3.93       0.529
  WS02003069           JUNCTION      0.32  1029.86     0  01:52     0.00902          13       0.199
  WS02003072           JUNCTION      0.00  1029.65     0  01:53           0        12.9       0.249
  WS02003073           JUNCTION      1.82  1031.38     0  01:54      0.0514        12.9       0.277
  WS02003060           JUNCTION     16.53  1029.67     0  01:52       0.466          13       0.188
  WS02003066           JUNCTION      0.00   865.74     0  01:40           0        8.64       0.048
  WS02003059           JUNCTION      0.00   209.33     0  03:15           0        3.91       0.941
  WS02003067           JUNCTION      0.00   865.63     0  01:40           0        8.65       0.101
  WS02004401           JUNCTION      0.00   869.44     0  01:37           0        8.86       0.218
  WS02004402           JUNCTION      0.00   869.43     0  01:37           0        8.84       0.208
  WS02004403           JUNCTION      0.00   869.46     0  01:37           0        8.83       0.191
  WS02004404           JUNCTION      0.16   869.61     0  01:37     0.00457        8.81       0.146
  WS02004406           JUNCTION      0.00   869.62     0  01:37           0        8.78       0.355
  WS02004409           JUNCTION      0.00   869.38     0  01:37           0        8.75       0.165
  WS02004410           JUNCTION      0.00   866.23     0  01:39           0        8.73       0.190
  WS02004411           JUNCTION      0.00   865.59     0  01:39           0        8.71       0.197
  WS02004412           JUNCTION      0.00   865.47     0  01:39           0         8.7       0.217
  WS02004413           JUNCTION      0.00   865.62     0  01:40           0        8.68       0.324
  WS02004405           JUNCTION      0.04   869.63     0  01:37     0.00107         8.8       0.219
  WS02006109           JUNCTION      1.23   845.13     0  01:35      0.0347        8.82       0.188
  WS02006110           JUNCTION      0.00   845.11     0  01:35           0         8.8       0.197
  WS02006111           JUNCTION      0.00   836.70     0  01:37           0        8.78       0.037
  WS02006112           JUNCTION     34.22   869.44     0  01:37       0.151        8.92       0.294
  WS02006113           JUNCTION      0.00   845.19     0  01:35           0        8.79       0.098
  WS02006115           JUNCTION      0.00   869.41     0  01:37           0         8.9       0.198
  WS02006116           JUNCTION      0.00   869.43     0  01:37           0        8.88       0.190
  WS02006230           JUNCTION     10.28   337.16     0  03:22        0.29        4.76       0.239
  WS02006231           JUNCTION      0.00   324.54     0  03:22           0        4.46       0.196
  WS02006232           JUNCTION      0.00   324.34     0  03:22           0        4.46       0.318
  WS02006234           JUNCTION      0.00   322.86     0  03:22           0        4.45       0.150
  WS02006235           JUNCTION      0.00   322.53     0  03:22           0        4.59       0.170
  WS02006238           JUNCTION      0.00   249.12     0  03:22           0        2.67       0.236
  WS02006240           JUNCTION      0.00   245.37     0  03:21           0        2.62       0.357
  WS02006242           JUNCTION      0.00   243.94     0  03:21           0        2.62       0.519
  WS02006243           JUNCTION      0.00   240.96     0  03:20           0         2.6      -0.056
  WS02006245           JUNCTION      0.00   239.13     0  03:20           0        2.61       0.564
  WS02006247           JUNCTION      0.00   237.10     0  03:20           0        2.61       0.268
  WS02006248           JUNCTION      0.00   235.05     0  03:20           0        2.61       0.037
  WS02006249           JUNCTION      0.00   371.58     0  01:40           0        2.93       0.497
  WS02006239           JUNCTION      0.00   247.19     0  03:21           0        2.64       0.324
  WS02006251           JUNCTION      0.08   371.32     0  01:40     0.00217        2.96       0.269
  WS02006252           JUNCTION      0.00   200.00     0  03:10           0        2.11       0.020
  WS02006253           JUNCTION      4.74   178.63     0  01:36      0.0174       0.851       0.421
  WS02006256           JUNCTION      0.00   373.33     0  01:37           0        5.48       0.051
  WS02004138           JUNCTION      0.00   190.00     0  00:40           0        3.79       0.084
  WS02004407           JUNCTION      0.00   869.83     0  01:37           0        8.75       0.073
  WS02006228           JUNCTION      0.00   843.95     0  01:35           0         8.8       0.149
  WS02006229           JUNCTION      0.00   847.57     0  01:34           0        8.84       0.153
  WS02006280           JUNCTION      0.00   821.23     0  01:36           0        4.12       0.004
  WS02006284           JUNCTION      0.10   821.17     0  01:35      0.0027        4.12       0.020
  WS02006287           JUNCTION      0.00   820.95     0  01:36           0        4.12       0.018
  WSF200               JUNCTION      0.00   865.71     0  01:40           0        8.64       0.042
  HS02004901           JUNCTION     41.69    41.69     0  01:31       0.183       0.183       0.972
  HS02004881           JUNCTION     17.57   174.51     0  01:36      0.0714       0.818       0.059
  HS02004876           JUNCTION     30.53   157.86     0  01:36       0.138       0.747       0.075
  HS02004870           JUNCTION     32.08   127.64     0  01:36       0.135       0.609       0.018
  HS02004862           JUNCTION     28.49    96.84     0  01:37       0.155       0.474       0.038
  HS02004856           JUNCTION     23.95    68.40     0  01:36       0.102        0.32       0.450
  HS02004852           JUNCTION      0.00    45.39     0  01:37           0       0.218       0.028
  HS02004848           JUNCTION     61.76    61.76     0  01:40       0.354       0.354       0.014
  HS02004842           JUNCTION      0.00    18.52     0  01:52           0       0.149       9.566
  HS02004837           JUNCTION     59.75    74.34     0  01:37       0.414        0.55       0.147
  HS02004830           JUNCTION      0.15    74.45     0  01:37     0.00423        0.54       0.230
  HS02004824           JUNCTION     72.88   147.20     0  01:40        0.43       0.969       0.056
  HS02004817           JUNCTION      0.60   150.33     0  01:41      0.0169       0.985       1.721
  HS02004807           JUNCTION     59.71   204.86     0  01:37       0.248        1.22       0.359
  HS02004802           JUNCTION      0.00   204.75     0  01:39           0        1.22       0.327
  HS02004799           JUNCTION     47.08   525.52     0  01:33       0.202         2.5       0.119
  HS02004792           JUNCTION    203.19   478.62     0  01:33       0.982         2.3       0.017
  HS02004788           JUNCTION     66.25   277.11     0  01:34       0.351        1.32       0.029
  HS02004785           JUNCTION      0.15   210.94     0  01:33     0.00423       0.971       0.053
  HS02004777           JUNCTION      0.03   211.17     0  01:32    0.000846       0.971       0.540
  HS02004770           JUNCTION    171.10   212.05     0  01:32       0.791       0.972       0.316
  HS02004480           JUNCTION      0.00   623.60     0  01:34           0        2.92       0.035
  HS02004479           JUNCTION      0.00    98.35     0  01:34           0       0.432       0.172
  HS02004478           JUNCTION      0.00   820.93     0  01:35           0        4.12       0.008
  YS02001745           JUNCTION    635.50   635.50     0  03:01        5.48        5.48       0.215
  YS02001748           JUNCTION      0.04   635.98     0  03:01     0.00127        5.47       0.414
  YS02001751           JUNCTION      0.01   636.03     0  03:01     0.00031        5.45       0.442
  YS02001754           JUNCTION      0.26   636.32     0  03:01     0.00733        5.44       0.446
  YS02001762           JUNCTION      0.00   394.05     0  01:40           0         3.2       0.658
  YS02001765           JUNCTION      0.00   393.98     0  01:40           0        3.19       0.760
  YS02001767           JUNCTION      0.54   394.09     0  01:40      0.0151        3.22       1.116
  YS02001770           JUNCTION    726.70  1079.08     0  03:01           6        7.98       0.390
  YS02001774           JUNCTION      0.00   851.17     0  02:45           0        6.41       0.389
  YS02001779           JUNCTION      0.01   851.17     0  02:45    0.000141        6.39       0.237
  YS02001882           JUNCTION      0.00    49.59     0  01:34           0      0.0241      10.555
  YS02001884           JUNCTION      0.00    60.00     0  01:32           0      0.0599      11.732
  YS02001759           JUNCTION    688.01   889.99     0  01:46        5.55        6.74       0.337
  YS02001887           JUNCTION    787.85   787.85     0  03:01        6.23        6.26       0.138
  YS02001890           JUNCTION      0.00   787.89     0  03:01           0        6.22       0.153
  YS02001898           JUNCTION      0.00   569.90     0  01:38           0        5.24       0.045
  YS02001901           JUNCTION      0.00   570.53     0  01:38           0        5.24       0.142
  YS02001904           JUNCTION      0.00   570.78     0  01:38           0        5.24       0.121
  YS02001907           JUNCTION      0.00  1384.53     0  03:01           0        13.2       0.184
  YS02001910           JUNCTION      0.00   868.06     0  03:01           0        7.96       0.149
  YS02001915           JUNCTION    536.93   868.02     0  03:01        4.53        8.02       0.081
  YS02001918           JUNCTION      0.00   355.21     0  01:39           0        3.52       0.050
  YS02001619           JUNCTION    541.58   541.58     0  03:01        4.58        4.58       0.267
  YS02001629           JUNCTION      0.00   392.02     0  01:31           0        1.87       1.514
  YS02001641           JUNCTION      0.00   451.36     0  01:32           0        5.95       0.352
  YS02001644           JUNCTION    611.54  1882.08     0  03:01         5.3        19.2       0.133
  YS02001652           JUNCTION      0.00   607.56     0  03:01           0        4.73       0.480
  YS02001655           JUNCTION      0.15   607.54     0  03:01     0.00434        4.75       0.533
  YS02001920           JUNCTION      2.87   354.94     0  01:39      0.0809         3.5       0.096
  YS02001923           JUNCTION      0.04   333.53     0  03:01     0.00106         3.4       0.041
  YS02001926           JUNCTION      0.05   330.49     0  03:01     0.00147        3.38       0.105
  YS02001929           JUNCTION    330.66   330.66     0  03:01        3.37        3.37       0.023
  YS02001658           JUNCTION      0.00   607.37     0  03:01           0        4.77       0.484
  YS02001661           JUNCTION      0.00   804.01     0  01:47           0        5.29       0.101
  YS02001664           JUNCTION    606.27   606.27     0  03:01        4.78        5.29       0.123
  YS02001622           JUNCTION      0.00   541.61     0  03:01           0        4.57       0.692
  YS02001633           JUNCTION    625.57   625.57     0  03:01        5.46        6.65       0.483
  YS02001649           JUNCTION      0.00  1413.55     0  03:01           0        10.9       0.337
  YS02001757           JUNCTION      0.00  2167.89     0  01:46           0        11.8       0.774
  YS02001895           JUNCTION      0.00   569.57     0  01:38           0        5.25       0.118
  YS02001625           JUNCTION      0.00   743.64     0  03:01           0        5.19       0.771
  YS02163301           JUNCTION      0.00   307.80     0  01:30           0        1.87       1.290
  YS02163601           JUNCTION      0.11   450.51     0  01:32      0.0031        5.95       0.503
  YS02164001           JUNCTION      0.00   450.56     0  01:32           0        5.94       0.336
  YS02001647           JUNCTION      0.00   846.70     0  03:11           0        8.72       0.324
  YSB1154              JUNCTION     54.28    54.28     0  01:34       0.243       0.243       0.595
  YSB6556              JUNCTION      0.00    54.37     0  01:35           0       0.244       0.519
  YSB1174              JUNCTION     46.17    46.17     0  01:30        0.18       0.181       0.712
  YSB1171              JUNCTION      0.00    98.46     0  01:34           0       0.431       1.495
  YS02006553           JUNCTION      0.00   699.75     0  03:50           0        7.67       0.206
  YS02006561           JUNCTION      0.00  1144.59     0  01:39           0        13.4       0.006
  YS02006556           JUNCTION      0.00   699.81     0  03:50           0        7.68       0.145
  YS02006558           JUNCTION    724.98  1144.96     0  01:39         5.8        13.4       0.038
  YS02001783           JUNCTION      0.00  1144.63     0  01:39           0        13.4       0.020
  YS02001784           JUNCTION      1.06  1145.88     0  01:39      0.0299        13.4       0.032
  YS02001786           JUNCTION      0.06  1145.75     0  01:39     0.00159        13.4       0.031
  YS02001788           JUNCTION      0.07  1147.11     0  01:39       0.002        13.4       0.016
  YS02001790           JUNCTION      0.15  1151.08     0  01:39     0.00437        13.4       0.024
  YS02001791           JUNCTION      0.00  1233.93     0  01:38           0        13.4       0.009
  YS02001793           JUNCTION      0.00  1135.10     0  01:38           0        13.4      -0.009
  WS02004139           JUNCTION      0.32   190.33     0  00:40     0.00905         3.8       0.808
  WSC                  OUTFALL       0.00  1031.24     0  01:54           0        12.9       0.000
  3                    OUTFALL       0.00   373.35     0  01:37           0         3.5       0.000
  4                    OUTFALL       0.00   278.60     0  01:40           0       0.308       0.000
  5                    OUTFALL       0.00     0.00     0  00:00           0           0       0.000 ltr
  JK-storage           STORAGE       0.00  1077.06     0  01:37           0        13.6       0.023
  CC-storage           STORAGE       0.00  2168.25     0  01:46           0        6.13       1.064
  XR-storage           STORAGE    1408.02  1408.02     0  03:01        16.7        17.3      -0.000
  
  
  **********************
  Node Surcharge Summary
  **********************
  
  Surcharging occurs when water rises above the top of the highest conduit.
  ---------------------------------------------------------------------
                                               Max. Height   Min. Depth
                                   Hours       Above Crown    Below Rim
  Node                 Type      Surcharged         Meters       Meters
  ---------------------------------------------------------------------
  WS02004401           JUNCTION        1.03          0.185        1.475
  WS02004402           JUNCTION        1.12          0.187        1.553
  WS02004403           JUNCTION        1.13          0.152        1.878
  WS02004404           JUNCTION        1.75          0.199        2.581
  WS02004406           JUNCTION        1.39          0.143        2.307
  WS02004405           JUNCTION        1.58          0.179        2.621
  WS02006109           JUNCTION        2.06          0.545        1.275
  WS02006110           JUNCTION        1.89          0.288        1.562
  WS02006112           JUNCTION        1.95          0.470        1.210
  WS02006115           JUNCTION        0.47          0.127        2.123
  WS02006116           JUNCTION        0.65          0.129        2.161
  WS02006230           JUNCTION        1.39          0.427        1.143
  WS02006231           JUNCTION        1.46          0.491        1.039
  WS02006232           JUNCTION        1.97          0.514        0.966
  WS02006234           JUNCTION        1.51          0.403        0.837
  WS02006235           JUNCTION        1.59          0.418        0.872
  WS02006238           JUNCTION        1.63          0.439        0.991
  WS02006240           JUNCTION        1.27          0.429        0.961
  WS02006242           JUNCTION        1.37          0.820        0.000
  WS02006243           JUNCTION        0.47          0.410        0.360
  WS02006245           JUNCTION        0.23          0.277        0.573
  WS02006247           JUNCTION        0.21          0.545        0.215
  WS02006239           JUNCTION        1.41          0.447        0.843
  WS02006228           JUNCTION        2.06          0.672        1.528
  HS02004817           JUNCTION        0.32          0.039        1.701
  YS02001745           JUNCTION        0.76          0.042        1.308
  YS02001748           JUNCTION        6.28          1.190        0.000
  YS02001751           JUNCTION        6.30          1.200        0.000
  YS02001754           JUNCTION        6.31          1.095        0.055
  YS02001762           JUNCTION        6.34          1.074        0.076
  YS02001765           JUNCTION        6.34          1.015        0.085
  YS02001767           JUNCTION        6.33          0.971        0.059
  YS02001770           JUNCTION        6.33          0.920        0.000
  YS02001774           JUNCTION        6.34          1.005        0.045
  YS02001779           JUNCTION        6.31          0.680        0.000
  YS02001882           JUNCTION        2.57          0.672        0.158
  YS02001884           JUNCTION        2.60          0.702        0.168
  YS02001759           JUNCTION        6.35          1.115        0.095
  YS02001887           JUNCTION        2.68          0.772        0.178
  YS02001890           JUNCTION        2.70          0.760        0.000
  YS02001898           JUNCTION        2.53          0.550        0.190
  YS02001901           JUNCTION        2.64          0.688        0.182
  YS02001904           JUNCTION        2.63          0.647        0.203
  YS02001907           JUNCTION        3.05          0.950        0.000
  YS02001910           JUNCTION        2.75          0.913        0.187
  YS02001915           JUNCTION        2.56          0.861        0.139
  YS02001918           JUNCTION        2.33          0.705        0.105
  YS02001619           JUNCTION        6.31          0.610        0.000
  YS02001629           JUNCTION        6.31          0.470        0.000
  YS02001641           JUNCTION        6.34          0.945        0.155
  YS02001644           JUNCTION        6.34          0.920        0.000
  YS02001652           JUNCTION        6.31          1.130        0.000
  YS02001655           JUNCTION        6.30          1.200        0.000
  YS02001920           JUNCTION        2.37          0.688        0.452
  YS02001923           JUNCTION        0.01          0.278        0.542
  YS02001926           JUNCTION        0.01          0.278        0.622
  YS02001658           JUNCTION        6.29          1.300        0.000
  YS02001661           JUNCTION        1.17          1.390        0.000
  YS02001622           JUNCTION        6.31          0.620        0.000
  YS02001633           JUNCTION        6.33          0.947        0.113
  YS02001649           JUNCTION        6.34          1.050        0.000
  YS02001757           JUNCTION        6.36          1.210        0.000
  YS02001895           JUNCTION        2.55          0.575        0.175
  YS02001625           JUNCTION        6.32          0.780        0.000
  YS02163301           JUNCTION        6.33          0.897        0.133
  YS02163601           JUNCTION        6.34          1.013        0.067
  YS02164001           JUNCTION        6.33          0.942        0.158
  YS02001647           JUNCTION        6.32          0.830        0.070
  YS02006553           JUNCTION        3.11          1.149        0.041
  YS02006561           JUNCTION        2.42          0.956        0.194
  YS02006556           JUNCTION        2.90          1.308        0.042
  YS02006558           JUNCTION        2.88          1.372        0.028
  YS02001783           JUNCTION        2.93          1.470        0.130
  YS02001784           JUNCTION        2.98          1.479        0.011
  YS02001786           JUNCTION        2.88          1.430        0.000
  YS02001788           JUNCTION        2.83          1.480        0.000
  YS02001790           JUNCTION        4.30          1.157        0.000
  YS02001791           JUNCTION        4.43          1.153        0.767
  YS02001793           JUNCTION        4.78          0.879        1.721
  
  
  *********************
  Node Flooding Summary
  *********************
  
  Flooding refers to all water that overflows a node, whether it ponds or not.
  --------------------------------------------------------------------------
                                                             Total   Maximum
                                 Maximum   Time of Max       Flood    Ponded
                        Hours       Rate    Occurrence      Volume     Depth
  Node                 Flooded       LPS   days hr:min    10^6 ltr    Meters
  --------------------------------------------------------------------------
  WS02006242              0.01     84.36      0  01:30       0.000     0.000
  YS02001748              0.01    170.26      0  01:32       0.000     0.000
  YS02001751              0.01      7.95      0  01:32       0.000     0.000
  YS02001770              0.81    227.91      0  03:01       0.306     0.000
  YS02001779              4.76    851.17      0  02:45       6.368     0.000
  YS02001890              1.65    271.47      0  03:01       0.960     0.000
  YS02001907              2.19   1136.88      0  03:01       5.516     0.000
  YS02001619              0.01     98.24      0  01:31       0.000     0.000
  YS02001629              0.01    383.15      0  01:31       0.005     0.000
  YS02001644              6.22   1882.07      0  03:01      18.518     0.000
  YS02001652              0.01     17.41      0  01:33       0.000     0.000
  YS02001655              0.01     21.67      0  01:32       0.000     0.000
  YS02001658              0.01    333.81      0  01:32       0.000     0.000
  YS02001661              0.01    160.22      0  01:33       0.000     0.000
  YS02001622              0.01    100.77      0  01:31       0.000     0.000
  YS02001649              1.05    566.85      0  03:01       1.367     0.000
  YS02001757              0.21     41.09      0  03:04       0.016     0.000
  YS02001625              2.87    743.63      0  03:01       3.933     0.000
  YS02001786              0.01     52.09      0  01:39       0.000     0.000
  YS02001788              0.01    161.04      0  01:39       0.000     0.000
  YS02001790              0.01    232.18      0  01:39       0.000     0.000
  JK-storage              3.99    972.28      0  02:50       8.002     0.000
  XR-storage              6.52   1217.98      0  03:01      12.605     0.000
  
  
  **********************
  Storage Volume Summary
  **********************
  
  --------------------------------------------------------------------------------------------------
                         Average     Avg  Evap Exfil       Maximum     Max    Time of Max    Maximum
                          Volume    Pcnt  Pcnt  Pcnt        Volume    Pcnt     Occurrence    Outflow
  Storage Unit           1000 m3    Full  Loss  Loss       1000 m3    Full    days hr:min        LPS
  --------------------------------------------------------------------------------------------------
  JK-storage               0.243      83     0     0         0.291     100       0  01:39     513.04
  CC-storage               3.366      21     0     0         4.122      26       0  03:03     221.50
  XR-storage               0.916      99     0     0         0.926     100       0  01:18     190.00
  
  
  ***********************
  Outfall Loading Summary
  ***********************
  
  -----------------------------------------------------------
                         Flow       Avg       Max       Total
                         Freq      Flow      Flow      Volume
  Outfall Node           Pcnt       LPS       LPS    10^6 ltr
  -----------------------------------------------------------
  WSC                   99.99    526.40   1031.24      12.911
  3                     85.10    189.03    373.35       3.498
  4                     23.10     67.74    278.60       0.308
  5                      0.00      0.00      0.00       0.000
  -----------------------------------------------------------
  System                52.05    783.18   1496.57      16.716
  
  
  ********************
  Link Flow Summary
  ********************
  
  -----------------------------------------------------------------------------
                                 Maximum  Time of Max   Maximum    Max/    Max/
                                  |Flow|   Occurrence   |Veloc|    Full    Full
  Link                 Type          LPS  days hr:min     m/sec    Flow   Depth
  -----------------------------------------------------------------------------
  WS02003066WSF200     CONDUIT    865.71     0  01:40      3.17    0.15    0.30
  WS02006287WS02006284 CONDUIT    821.08     0  01:35      2.53    0.38    0.43
  WS02006284WS02006280 CONDUIT    821.23     0  01:36      2.76    0.34    0.40
  WS02006280WS02006229 CONDUIT    821.14     0  01:36      4.47    0.18    0.33
  WS02006229WS02006228 CONDUIT    843.95     0  01:35      1.68    2.80    1.00
  WS02006256WS02006235 CONDUIT    166.25     0  00:01      2.58    1.76    1.00
  WS02006253WS02006251 CONDUIT    214.86     0  01:34      0.77    0.64    0.98
  WS02006252WS02006251 CONDUIT    200.34     0  05:20      1.97    0.74    0.76
  WS02006251WS02006249 CONDUIT    371.58     0  01:40      0.97    1.07    0.97
  WS02006249WS02006248 CONDUIT    235.05     0  03:20      1.00    1.29    0.96
  WS02006248WS02006247 CONDUIT    237.10     0  03:20      0.98    0.52    0.99
  WS02006247WS02006245 CONDUIT    239.13     0  03:20      0.93    1.90    1.00
  WS02006245WS02006243 CONDUIT    240.96     0  03:20      1.06    0.71    1.00
  WS02006243WS02006242 CONDUIT    243.94     0  03:21      0.87    0.52    1.00
  WS02006242WS02006240 CONDUIT    245.37     0  03:21      0.78    0.97    1.00
  WS02006240WS02006239 CONDUIT    247.19     0  03:21      0.87    0.78    1.00
  WS02006239WS02006238 CONDUIT    249.12     0  03:22      0.76    0.80    1.00
  WS02006238WS02006235 CONDUIT    249.37     0  03:22      1.25    0.56    1.00
  WS02006235WS02006234 CONDUIT    322.86     0  03:22      0.94    3.41    1.00
  WS02006234WS02006232 CONDUIT    324.34     0  03:22      1.13    0.66    1.00
  WS02006232WS02006231 CONDUIT    324.54     0  03:22      0.94    0.68    1.00
  WS02006231WS02006230 CONDUIT    326.88     0  03:22      1.29    4.96    1.00
  WS02006230WS02006229 CONDUIT    340.44     0  03:22      0.88    7.58    1.00
  WS02006228WS02006109 CONDUIT    843.90     0  01:35      1.68    3.69    1.00
  WS02006116WS02004401 CONDUIT    869.44     0  01:37      1.11    1.20    1.00
  WS02006115WS02006116 CONDUIT    869.43     0  01:37      1.11    1.12    1.00
  WS02006113WS02006111 CONDUIT    836.70     0  01:37      2.71    1.00    0.90
  WS02006112WS02006115 CONDUIT    869.41     0  01:37      1.11    0.51    1.00
  WS02006111WS02006112 CONDUIT    838.08     0  01:37      1.86    0.40    0.95
  WS02006110WS02006113 CONDUIT    845.19     0  01:35      1.78    0.77    0.94
  WS02006109WS02006110 CONDUIT    845.11     0  01:35      1.68    1.62    1.00
  WS02004411WS02004412 CONDUIT    865.47     0  01:39      1.19    1.23    0.87
  WS02004401WS02004402 CONDUIT    869.43     0  01:37      1.11    1.04    1.00
  WS02004413WS02003067 CONDUIT    865.63     0  01:40      1.46    0.37    0.71
  WS02004412WS02004413 CONDUIT    865.62     0  01:40      1.14    0.58    0.93
  WS02004410WS02004411 CONDUIT    865.59     0  01:39      1.18    1.18    0.89
  WS02004409WS02004410 CONDUIT    866.23     0  01:39      1.20    1.12    0.90
  WS02004407WS02004409 CONDUIT    869.38     0  01:37      1.80    0.31    0.64
  WS02004406WS02004407 CONDUIT    869.83     0  01:37      1.50    0.39    0.69
  WS02004405WS02004406 CONDUIT    869.62     0  01:37      1.11    1.72    1.00
  WS02004404WS02004405 CONDUIT    869.60     0  01:37      1.11    8.52    1.00
  WS02004403WS02004404 CONDUIT    869.45     0  01:37      1.11    0.63    1.00
  WS02004402WS02004403 CONDUIT    869.46     0  01:37      1.11    1.25    1.00
  WS02004139WS02001211 CONDUIT    193.15     0  03:14      0.53    0.24    0.51
  WS02004138WS02004139 CONDUIT    190.01     0  00:40      2.39    0.04    0.36
  WS02003067WS02003066 CONDUIT    865.74     0  01:40      1.59    0.28    0.49
  WS02001213WS02003059 CONDUIT    209.33     0  03:15      0.47    0.35    0.76
  WS02001212WS02001213 CONDUIT    206.06     0  03:15      1.03    0.32    0.43
  WS02001211WS02001212 CONDUIT    203.74     0  03:14      0.54    0.16    0.57
  WS02003072WS02003073 CONDUIT   1029.56     0  01:54      1.78    2.22    0.51
  WS02003069WS02003072 CONDUIT   1029.65     0  01:53      1.67    0.50    0.54
  WS02003060WS02003069 CONDUIT   1029.54     0  01:52      1.91    0.40    0.48
  WS02003059WS02003060 CONDUIT    213.64     0  03:17      0.67    0.14    0.67
  HS02004901HS02004770 CONDUIT     40.98     0  01:33      0.10    0.15    0.57
  HS02004876HS02004881 CONDUIT    157.88     0  01:36      1.33    1.68    0.17
  HS02004870HS02004876 CONDUIT    127.61     0  01:36      0.90    0.08    0.20
  HS02004842HS02004848 CONDUIT     18.52     0  01:52      0.08    0.01    0.35
  HS02004837HS02004842 CONDUIT     18.98     0  01:52      0.41    0.01    0.36
  HS02004830HS02004837 CONDUIT     74.30     0  01:37      0.68    0.07    0.16
  HS02004824HS02004830 CONDUIT     75.03     0  01:38      0.62    0.10    0.21
  HS02004817HS02004824 CONDUIT    149.73     0  01:41      0.35    0.07    0.62
  HS02004770HS02004777 CONDUIT    211.14     0  01:32      0.52    0.39    0.58
  HS02004799HS02004480 CONDUIT    525.37     0  01:34      1.14    0.66    0.66
  HS02004792HS02004799 CONDUIT    478.53     0  01:33      1.27    0.29    0.54
  HS02004788HS02004792 CONDUIT    277.00     0  01:34      1.34    0.18    0.30
  HS02004785HS02004788 CONDUIT    210.88     0  01:34      0.96    1.59    0.31
  HS02004777HS02004785 CONDUIT    210.79     0  01:33      0.62    0.26    0.49
  HS02004480HS02004478 CONDUIT    623.55     0  01:34      1.66    2.63    0.54
  HS02004479HS02004480 CONDUIT     98.64     0  01:35      0.34    0.10    0.63
  HS02004862HS02004870 CONDUIT     96.84     0  01:37      0.86    0.10    0.16
  HS02004848HS02004852 CONDUIT     45.39     0  01:37      0.56    0.05    0.12
  HS02004856HS02004862 CONDUIT     68.36     0  01:37      0.64    0.07    0.15
  HS02004852HS02004856 CONDUIT     45.48     0  01:38      0.37    0.05    0.18
  HS02004802HS02004478 CONDUIT    205.89     0  01:40      0.56    0.18    0.54
  HS02004478WS02006287 CONDUIT    820.95     0  01:36      2.26    0.23    0.40
  HS02004817HS02004807 CONDUIT    150.75     0  01:41      0.27    0.09    0.79
  HS02004807HS02004802 CONDUIT    204.75     0  01:39      0.50    0.39    0.59
  YS02001759YS02001757 CONDUIT    890.54     0  01:47      1.13    0.63    1.00
  YS02001762YS02001759 CONDUIT    393.92     0  01:40      0.50    0.45    1.00
  YS02001765YS02001762 CONDUIT    394.05     0  01:40      0.50    0.37    1.00
  YS02001770YS02001767 CONDUIT    393.55     0  01:40      0.50    1.56    1.00
  YS02001774YS02001770 CONDUIT    851.17     0  02:45      1.08    0.54    1.00
  YS02001779YS02001774 CONDUIT    851.17     0  02:45      1.08    0.43    1.00
  YS02001649YS02001757 CONDUIT    909.85     0  01:45      1.16    0.55    1.00
  YS02001767YS02001765 CONDUIT    393.98     0  01:40      0.50    0.50    1.00
  YS02006561YS02001783 CONDUIT   1144.63     0  01:39      2.28    0.59    1.00
  YS02001783YS02001784 CONDUIT   1144.82     0  01:39      2.28    1.58    1.00
  YS02001784YS02001785 CONDUIT   1145.69     0  01:39      2.28    2.67    1.00
  YS02001788YS02001790 CONDUIT   1150.93     0  01:39      2.66    0.85    1.00
  YS02001790YS02001791 CONDUIT   1233.93     0  01:38      3.36    1.34    1.00
  YS02001791YS02001793 CONDUIT   1135.10     0  01:38      6.36    0.49    1.00
  YS02001910YS02001907 CONDUIT    868.14     0  03:01      1.11    0.49    1.00
  YS02001786YS02001788 CONDUIT   1147.04     0  01:39      2.45    2.21    1.00
  YS02001915YS02001910 CONDUIT    868.06     0  03:01      1.11    0.43    1.00
  YS02001918YS02001915 CONDUIT    355.37     0  01:39      0.55    0.20    1.00
  YS02001923YS02001920 CONDUIT    352.07     0  01:39      0.88    0.16    1.00
  YS02001926YS02001923 CONDUIT    333.49     0  03:01      0.95    0.48    1.00
  YS02001929YS02001926 CONDUIT    330.43     0  03:01      1.03    0.16    0.95
  YS02001920YS02001918 CONDUIT    355.21     0  01:39      0.84    0.34    1.00
  YS02001629YS02163301 CONDUIT    298.45     0  01:30      0.38    0.37    1.00
  YS02001619YS02001622 CONDUIT    541.61     0  03:01      0.90    0.80    1.00
  YS02001622YS02001625 CONDUIT    541.69     0  03:01      0.69    0.29    1.00
  YS02001625YS02001629 CONDUIT    308.77     0  01:30      0.45    0.15    1.00
  YS02163301YS02001633 CONDUIT    307.80     0  01:30      0.39    0.29    1.00
  YS02163601YS02164001 CONDUIT    450.56     0  01:32      0.57    0.40    1.00
  YS02164001YS02001641 CONDUIT    451.36     0  01:32      0.57    0.62    1.00
  YS02001641YS02001644 CONDUIT    450.97     0  01:32      0.57    1.46    1.00
  YS02001647YS02001649 CONDUIT    846.70     0  03:11      1.08    0.45    1.00
  YS02006553YS02006556 CONDUIT    699.81     0  03:50      0.89    0.60    1.00
  YS02006556YS02006558 CONDUIT    699.91     0  03:50      0.89    0.55    1.00
  YSB6556YSB1171       CONDUIT     54.78     0  01:35      0.16    0.06    0.86
  YS02001907YS02006553 CONDUIT    699.75     0  03:50      0.78    0.82    1.00
  YS02006558YS02006561 CONDUIT   1144.59     0  01:39      4.05    2.53    1.00
  YS02001633YS02163601 CONDUIT    450.40     0  01:32      0.57    0.47    1.00
  YS02001644YS02001647 CONDUIT    846.70     0  02:50      1.08    0.50    1.00
  YS02001745YS02001748 CONDUIT    635.93     0  03:01      1.90    0.24    1.00
  YS02001748YS02001751 CONDUIT    636.02     0  03:01      1.44    0.32    1.00
  YS02001751YS02001754 CONDUIT    636.06     0  03:01      1.17    0.31    1.00
  YS02001754YS02001757 CONDUIT    636.34     0  03:01      0.81    0.26    1.00
  YS02001882YS02001884 CONDUIT     49.59     0  01:34      0.18    0.06    1.00
  YS02001884YS02001887 CONDUIT     60.00     0  01:32      0.14    0.08    1.00
  YS02001890YS02001895 CONDUIT    569.57     0  01:38      0.73    0.27    1.00
  YS02001895YS02001898 CONDUIT    569.90     0  01:38      0.73    0.99    1.00
  YS02001898YS02001901 CONDUIT    570.53     0  01:38      0.73    0.37    1.00
  YS02001901YS02001904 CONDUIT    570.78     0  01:38      0.73    0.89    1.00
  YS02001904YS02001907 CONDUIT    571.18     0  01:38      0.73    0.20    1.00
  YS02001887YS02001890 CONDUIT    787.89     0  03:01      1.00    1.35    1.00
  YS02001652YS02001649 CONDUIT    607.56     0  03:01      0.77    0.30    1.00
  YS02001655YS02001652 CONDUIT    607.56     0  03:01      1.26    0.30    1.00
  YS02001658YS02001655 CONDUIT    607.39     0  03:01      1.67    0.26    1.00
  YS02001661YS02001658 CONDUIT    607.37     0  03:01      2.02    0.24    1.00
  YS02001664YS02001661 CONDUIT    804.01     0  01:47      1.90    0.25    0.84
  YSB1154YSB6556       CONDUIT     54.37     0  01:35      0.17    0.10    0.79
  YSB1174YSB1171       CONDUIT     45.33     0  01:31      0.13    0.07    0.90
  YSB1171HS02004479    CONDUIT     98.35     0  01:34      0.54    0.07    0.73
  HS02004881HS02006253 CONDUIT    174.50     0  01:36      2.53    0.03    0.31
  YS02001793JiankangQianchi CONDUIT   1077.06     0  01:37     13.01    0.09    1.00
  YS02001757CaochengTiaoxuchi CONDUIT   2168.25     0  01:46      3.81    0.95    1.00
  WSF200WS02003060     CONDUIT    865.49     0  01:40      2.33    0.19    0.39
  1                    CONDUIT   1031.24     0  01:54      3.35    0.36    0.41
  2                    CONDUIT    278.60     0  01:40      6.32    0.67    0.60
  3                    CONDUIT    373.35     0  01:37      9.20    0.59    0.56
  4                    CONDUIT      0.00     0  00:00      0.00    0.00    0.00
  CC-Pump-1            PUMP         0.00     0  00:00              0.00
  CC-Pump-2            PUMP       200.00     0  03:10              1.00
  JK-Pump-1            PUMP         0.00     0  00:00              0.00
  JK-Pump-2            PUMP       300.00     0  00:00              1.00
  XR-Pump-1            PUMP        95.00     0  00:40              1.00
  XR-Pump-2            PUMP         0.00     0  00:00              0.00
  XR-Pump-3            PUMP        95.00     0  00:00              1.00
  XR-Pump-4            PUMP         0.00     0  00:00              0.00
  
  
  ***************************
  Flow Classification Summary
  ***************************
  
  -------------------------------------------------------------------------------------
                      Adjusted    ---------- Fraction of Time in Flow Class ---------- 
                       /Actual         Up    Down  Sub   Sup   Up    Down  Norm  Inlet 
  Conduit               Length    Dry  Dry   Dry   Crit  Crit  Crit  Crit  Ltd   Ctrl  
  -------------------------------------------------------------------------------------
  WS02003066WSF200        1.00   0.07  0.00  0.00  0.00  0.93  0.00  0.00  0.56  0.00
  WS02006287WS02006284    1.00   0.04  0.01  0.00  0.53  0.42  0.00  0.00  0.61  0.00
  WS02006284WS02006280    1.00   0.05  0.00  0.00  0.00  0.00  0.00  0.95  0.00  0.00
  WS02006280WS02006229    1.00   0.05  0.00  0.00  0.00  0.04  0.00  0.91  0.01  0.00
  WS02006229WS02006228    1.00   0.00  0.00  0.00  0.99  0.00  0.00  0.01  0.00  0.00
  WS02006256WS02006235    1.00   0.00  0.00  0.00  1.00  0.00  0.00  0.00  0.00  0.00
  WS02006253WS02006251    1.00   0.03  0.01  0.00  0.95  0.00  0.00  0.00  0.00  0.00
  WS02006252WS02006251    1.00   0.06  0.00  0.00  0.00  0.00  0.94  0.00  0.00  0.00
  WS02006251WS02006249    1.00   0.00  0.00  0.00  1.00  0.00  0.00  0.00  0.29  0.00
  WS02006249WS02006248    1.00   0.00  0.02  0.00  0.77  0.00  0.20  0.00  0.00  0.00
  WS02006248WS02006247    1.00   0.02  0.00  0.00  0.98  0.00  0.00  0.00  0.19  0.00
  WS02006247WS02006245    1.00   0.02  0.00  0.00  0.97  0.00  0.00  0.01  0.00  0.00
  WS02006245WS02006243    1.00   0.01  0.00  0.00  0.94  0.00  0.00  0.04  0.02  0.00
  WS02006243WS02006242    1.00   0.01  0.00  0.00  0.99  0.00  0.00  0.00  0.18  0.00
  WS02006242WS02006240    1.00   0.00  0.00  0.00  0.99  0.00  0.00  0.00  0.00  0.00
  WS02006240WS02006239    1.00   0.00  0.00  0.00  0.97  0.00  0.00  0.03  0.01  0.00
  WS02006239WS02006238    1.00   0.00  0.00  0.00  1.00  0.00  0.00  0.00  0.02  0.00
  WS02006238WS02006235    1.00   0.00  0.00  0.00  1.00  0.00  0.00  0.00  0.00  0.00
  WS02006235WS02006234    1.00   0.00  0.00  0.00  0.97  0.00  0.03  0.00  0.00  0.00
  WS02006234WS02006232    1.00   0.00  0.00  0.00  1.00  0.00  0.00  0.00  0.05  0.00
  WS02006232WS02006231    1.00   0.00  0.00  0.00  0.99  0.00  0.00  0.00  0.00  0.00
  WS02006231WS02006230    1.00   0.00  0.00  0.00  0.38  0.00  0.61  0.00  0.00  0.00
  WS02006230WS02006229    1.00   0.00  0.00  0.00  0.98  0.00  0.00  0.02  0.01  0.00
  WS02006228WS02006109    1.00   0.00  0.00  0.00  1.00  0.00  0.00  0.00  0.00  0.00
  WS02006116WS02004401    1.00   0.03  0.00  0.00  0.97  0.00  0.00  0.00  0.00  0.00
  WS02006115WS02006116    1.00   0.03  0.00  0.00  0.97  0.00  0.00  0.01  0.00  0.00
  WS02006113WS02006111    1.00   0.02  0.00  0.00  0.12  0.86  0.00  0.00  0.14  0.00
  WS02006112WS02006115    1.00   0.02  0.00  0.00  0.97  0.00  0.00  0.00  0.00  0.00
  WS02006111WS02006112    1.00   0.02  0.00  0.00  0.97  0.00  0.00  0.00  0.79  0.00
  WS02006110WS02006113    1.00   0.01  0.01  0.00  0.98  0.00  0.00  0.00  0.00  0.00
  WS02006109WS02006110    1.00   0.00  0.01  0.00  0.98  0.00  0.01  0.00  0.00  0.00
  WS02004411WS02004412    1.00   0.04  0.00  0.00  0.96  0.00  0.00  0.00  0.00  0.00
  WS02004401WS02004402    1.00   0.03  0.00  0.00  0.97  0.00  0.00  0.00  0.00  0.00
  WS02004413WS02003067    1.00   0.04  0.02  0.00  0.00  0.00  0.94  0.00  0.00  0.00
  WS02004412WS02004413    1.00   0.04  0.00  0.00  0.96  0.00  0.00  0.00  0.03  0.00
  WS02004410WS02004411    1.00   0.04  0.00  0.00  0.96  0.00  0.00  0.00  0.02  0.00
  WS02004409WS02004410    1.00   0.04  0.00  0.00  0.96  0.00  0.00  0.00  0.00  0.00
  WS02004407WS02004409    1.00   0.04  0.00  0.00  0.95  0.01  0.00  0.00  0.88  0.00
  WS02004406WS02004407    1.00   0.00  0.04  0.00  0.96  0.00  0.00  0.00  0.00  0.00
  WS02004405WS02004406    1.00   0.00  0.00  0.00  1.00  0.00  0.00  0.00  0.01  0.00
  WS02004404WS02004405    1.00   0.00  0.00  0.00  1.00  0.00  0.00  0.00  0.00  0.00
  WS02004403WS02004404    1.00   0.00  0.03  0.00  0.97  0.00  0.00  0.00  0.01  0.00
  WS02004402WS02004403    1.00   0.03  0.00  0.00  0.97  0.00  0.00  0.00  0.00  0.00
  WS02004139WS02001211    1.00   0.00  0.00  0.00  0.99  0.00  0.01  0.00  0.00  0.00
  WS02004138WS02004139    1.00   0.00  0.00  0.00  0.99  0.01  0.00  0.00  1.00  0.00
  WS02003067WS02003066    1.00   0.06  0.01  0.00  0.93  0.00  0.00  0.00  0.00  0.00
  WS02001213WS02003059    1.00   0.00  0.01  0.00  0.99  0.00  0.00  0.00  0.00  0.00
  WS02001212WS02001213    1.00   0.01  0.00  0.00  0.58  0.00  0.41  0.00  0.00  0.00
  WS02001211WS02001212    1.00   0.00  0.01  0.00  0.99  0.00  0.00  0.00  0.00  0.00
  WS02003072WS02003073    1.00   0.00  0.00  0.00  0.00  0.00  0.00  1.00  0.00  0.00
  WS02003069WS02003072    1.00   0.00  0.00  0.00  0.99  0.01  0.00  0.00  0.46  0.00
  WS02003060WS02003069    1.00   0.00  0.00  0.00  0.98  0.02  0.00  0.00  0.21  0.00
  WS02003059WS02003060    1.00   0.00  0.00  0.00  1.00  0.00  0.00  0.00  0.02  0.00
  HS02004901HS02004770    1.00   0.04  0.00  0.00  0.96  0.00  0.00  0.00  0.00  0.00
  HS02004876HS02004881    1.00   0.02  0.00  0.00  0.66  0.31  0.00  0.00  0.00  0.00
  HS02004870HS02004876    1.00   0.01  0.00  0.00  0.99  0.00  0.00  0.00  0.95  0.00
  HS02004842HS02004848    1.00   0.00  0.04  0.00  0.96  0.00  0.00  0.00  0.54  0.00
  HS02004837HS02004842    1.00   0.00  0.00  0.00  0.99  0.01  0.00  0.00  0.11  0.00
  HS02004830HS02004837    1.00   0.00  0.00  0.00  1.00  0.00  0.00  0.00  0.99  0.00
  HS02004824HS02004830    1.00   0.00  0.00  0.00  1.00  0.00  0.00  0.00  0.03  0.00
  HS02004817HS02004824    1.00   0.00  0.00  0.00  1.00  0.00  0.00  0.00  0.88  0.00
  HS02004770HS02004777    1.00   0.00  0.04  0.00  0.96  0.00  0.00  0.00  0.02  0.00
  HS02004799HS02004480    1.00   0.00  0.02  0.00  0.95  0.00  0.02  0.00  0.00  0.00
  HS02004792HS02004799    1.00   0.00  0.00  0.00  0.99  0.01  0.00  0.00  0.98  0.00
  HS02004788HS02004792    1.00   0.00  0.00  0.00  0.99  0.01  0.00  0.00  0.98  0.00
  HS02004785HS02004788    1.00   0.00  0.00  0.00  1.00  0.00  0.00  0.00  0.00  0.00
  HS02004777HS02004785    1.00   0.00  0.00  0.00  1.00  0.00  0.00  0.00  0.11  0.00
  HS02004480HS02004478    1.00   0.04  0.00  0.00  0.58  0.00  0.00  0.38  0.00  0.00
  HS02004479HS02004480    1.00   0.03  0.00  0.00  0.97  0.00  0.00  0.00  0.11  0.00
  HS02004862HS02004870    1.00   0.00  0.00  0.00  1.00  0.00  0.00  0.00  0.02  0.00
  HS02004848HS02004852    1.00   0.04  0.00  0.00  0.96  0.00  0.00  0.00  0.81  0.00
  HS02004856HS02004862    1.00   0.00  0.05  0.00  0.95  0.00  0.00  0.00  0.84  0.00
  HS02004852HS02004856    1.00   0.04  0.00  0.00  0.95  0.00  0.00  0.00  0.70  0.00
  HS02004802HS02004478    1.00   0.04  0.00  0.00  0.95  0.00  0.00  0.00  0.02  0.00
  HS02004478WS02006287    1.00   0.05  0.00  0.00  0.60  0.35  0.00  0.00  0.58  0.00
  HS02004817HS02004807    1.00   0.00  0.04  0.00  0.96  0.00  0.00  0.00  0.01  0.00
  HS02004807HS02004802    1.00   0.04  0.00  0.00  0.95  0.00  0.00  0.00  0.00  0.00
  YS02001759YS02001757    1.00   0.00  0.00  0.00  1.00  0.00  0.00  0.00  0.15  0.00
  YS02001762YS02001759    1.00   0.00  0.00  0.00  1.00  0.00  0.00  0.00  0.02  0.00
  YS02001765YS02001762    1.00   0.00  0.00  0.00  1.00  0.00  0.00  0.00  0.13  0.00
  YS02001770YS02001767    1.00   0.00  0.00  0.00  1.00  0.00  0.00  0.00  0.00  0.00
  YS02001774YS02001770    1.00   0.00  0.04  0.00  0.96  0.00  0.00  0.00  0.02  0.00
  YS02001779YS02001774    1.00   0.00  0.00  0.00  1.00  0.00  0.00  0.00  0.16  0.00
  YS02001649YS02001757    1.00   0.00  0.00  0.00  1.00  0.00  0.00  0.00  0.15  0.00
  YS02001767YS02001765    1.00   0.00  0.00  0.00  1.00  0.00  0.00  0.00  0.00  0.00
  YS02006561YS02001783    1.00   0.05  0.00  0.00  0.65  0.30  0.00  0.00  0.43  0.00
  YS02001783YS02001784    1.00   0.00  0.05  0.00  0.95  0.00  0.00  0.00  0.00  0.00
  YS02001784YS02001785    1.00   0.00  0.00  0.00  1.00  0.00  0.00  0.00  0.16  0.00
  YS02001788YS02001790    1.00   0.00  0.00  0.00  0.74  0.26  0.00  0.00  0.35  0.00
  YS02001790YS02001791    1.00   0.00  0.00  0.00  0.72  0.28  0.00  0.00  0.19  0.00
  YS02001791YS02001793    1.00   0.00  0.00  0.00  0.75  0.25  0.00  0.00  0.04  0.00
  YS02001910YS02001907    1.00   0.00  0.00  0.00  0.97  0.00  0.00  0.02  0.12  0.00
  YS02001786YS02001788    1.00   0.00  0.00  0.00  0.72  0.28  0.00  0.00  0.00  0.00
  YS02001915YS02001910    1.00   0.00  0.00  0.00  0.99  0.01  0.00  0.00  0.13  0.00
  YS02001918YS02001915    1.00   0.00  0.01  0.00  0.98  0.01  0.00  0.00  0.45  0.00
  YS02001923YS02001920    1.00   0.00  0.00  0.00  1.00  0.00  0.00  0.00  0.64  0.00
  YS02001926YS02001923    1.00   0.00  0.03  0.00  0.39  0.00  0.57  0.00  0.00  0.00
  YS02001929YS02001926    1.00   0.00  0.04  0.00  0.96  0.00  0.00  0.00  0.56  0.00
  YS02001920YS02001918    1.00   0.00  0.01  0.00  0.99  0.00  0.00  0.00  0.00  0.00
  YS02001629YS02163301    1.00   0.05  0.00  0.00  0.95  0.00  0.00  0.00  0.00  0.00
  YS02001619YS02001622    1.00   0.04  0.00  0.00  0.96  0.00  0.00  0.00  0.00  0.00
  YS02001622YS02001625    1.00   0.04  0.00  0.00  0.96  0.00  0.00  0.00  0.03  0.00
  YS02001625YS02001629    1.00   0.04  0.01  0.00  0.94  0.00  0.01  0.00  0.00  0.00
  YS02163301YS02001633    1.00   0.00  0.05  0.00  0.95  0.00  0.00  0.00  0.00  0.00
  YS02163601YS02164001    1.00   0.00  0.04  0.00  0.96  0.00  0.00  0.00  0.00  0.00
  YS02164001YS02001641    1.00   0.01  0.03  0.00  0.96  0.00  0.00  0.00  0.06  0.00
  YS02001641YS02001644    1.00   0.00  0.01  0.00  0.99  0.00  0.00  0.00  0.00  0.00
  YS02001647YS02001649    1.00   0.00  0.05  0.00  0.95  0.00  0.00  0.00  0.01  0.00
  YS02006553YS02006556    1.00   0.01  0.00  0.00  0.99  0.00  0.00  0.00  0.03  0.00
  YS02006556YS02006558    1.00   0.00  0.00  0.00  1.00  0.00  0.00  0.00  0.00  0.00
  YSB6556YSB1171          1.00   0.03  0.01  0.00  0.96  0.00  0.00  0.00  0.00  0.00
  YS02001907YS02006553    1.00   0.00  0.02  0.00  0.98  0.00  0.00  0.00  0.00  0.00
  YS02006558YS02006561    1.00   0.05  0.00  0.00  0.42  0.53  0.00  0.00  0.35  0.00
  YS02001633YS02163601    1.00   0.00  0.01  0.00  0.99  0.00  0.00  0.00  0.15  0.00
  YS02001644YS02001647    1.00   0.00  0.05  0.00  0.95  0.00  0.00  0.00  0.00  0.00
  YS02001745YS02001748    1.00   0.00  0.00  0.00  0.93  0.00  0.00  0.07  0.00  0.00
  YS02001748YS02001751    1.00   0.00  0.00  0.00  0.98  0.02  0.00  0.00  0.13  0.00
  YS02001751YS02001754    1.00   0.00  0.00  0.00  0.95  0.00  0.00  0.05  0.01  0.00
  YS02001754YS02001757    1.00   0.00  0.00  0.00  0.99  0.01  0.00  0.00  0.16  0.00
  YS02001882YS02001884    1.00   0.05  0.00  0.00  0.95  0.00  0.00  0.00  0.00  0.00
  YS02001884YS02001887    1.00   0.03  0.01  0.00  0.96  0.00  0.00  0.00  0.00  0.00
  YS02001890YS02001895    1.00   0.00  0.05  0.00  0.95  0.00  0.00  0.00  0.00  0.00
  YS02001895YS02001898    1.00   0.05  0.00  0.00  0.95  0.00  0.00  0.00  0.00  0.00
  YS02001898YS02001901    1.00   0.05  0.00  0.00  0.95  0.00  0.00  0.00  0.00  0.00
  YS02001901YS02001904    1.00   0.05  0.00  0.00  0.95  0.00  0.00  0.00  0.00  0.00
  YS02001904YS02001907    1.00   0.00  0.05  0.00  0.95  0.00  0.00  0.00  0.00  0.00
  YS02001887YS02001890    1.00   0.00  0.00  0.00  0.97  0.00  0.02  0.00  0.00  0.00
  YS02001652YS02001649    1.00   0.00  0.00  0.00  1.00  0.00  0.00  0.00  0.15  0.00
  YS02001655YS02001652    1.00   0.00  0.00  0.00  0.95  0.00  0.00  0.05  0.01  0.00
  YS02001658YS02001655    1.00   0.00  0.05  0.00  0.94  0.01  0.00  0.00  0.01  0.00
  YS02001661YS02001658    1.00   0.05  0.00  0.00  0.93  0.02  0.00  0.00  0.00  0.00
  YS02001664YS02001661    1.00   0.04  0.00  0.00  0.93  0.02  0.00  0.00  0.07  0.00
  YSB1154YSB6556          1.00   0.04  0.00  0.00  0.96  0.00  0.00  0.00  0.01  0.00
  YSB1174YSB1171          1.00   0.03  0.01  0.00  0.96  0.00  0.00  0.00  0.00  0.00
  YSB1171HS02004479       1.00   0.03  0.00  0.00  0.97  0.00  0.00  0.00  0.10  0.00
  HS02004881HS02006253    1.00   0.03  0.00  0.00  0.44  0.11  0.00  0.43  0.42  0.00
  YS02001793JiankangQianchi    1.00   0.00  0.00  0.00  0.95  0.05  0.00  0.00  0.17  0.00
  YS02001757CaochengTiaoxuchi    1.00   0.00  0.06  0.00  0.89  0.05  0.00  0.00  0.00  0.00
  WSF200WS02003060        1.00   0.00  0.07  0.00  0.28  0.65  0.00  0.00  0.15  0.00
  1                       1.00   0.00  0.00  0.00  0.00  1.00  0.00  0.00  0.32  0.00
  2                       1.00   0.77  0.00  0.00  0.00  0.23  0.00  0.00  0.07  0.00
  3                       1.00   0.15  0.00  0.00  0.00  0.85  0.00  0.00  0.21  0.00
  4                       1.00   1.00  0.00  0.00  0.00  0.00  0.00  0.00  0.00  0.00
  
  
  *************************
  Conduit Surcharge Summary
  *************************
  
  ----------------------------------------------------------------------------
                                                           Hours        Hours 
                         --------- Hours Full --------   Above Full   Capacity
  Conduit                Both Ends  Upstream  Dnstream   Normal Flow   Limited
  ----------------------------------------------------------------------------
  WS02006229WS02006228        2.06      2.06      2.06      3.07         2.06
  WS02006256WS02006235        6.32      6.32      7.11      3.55         0.01
  WS02006253WS02006251        0.01      0.01      0.04      0.01         0.01
  WS02006251WS02006249        0.01      0.01      0.01      0.05         0.01
  WS02006249WS02006248        0.01      0.01      0.01      1.69         0.01
  WS02006248WS02006247        0.01      0.01      0.21      0.01         0.01
  WS02006247WS02006245        0.22      0.23      0.23      2.90         0.01
  WS02006245WS02006243        0.25      0.25      0.47      0.01         0.01
  WS02006243WS02006242        0.59      0.59      1.37      0.01         0.01
  WS02006242WS02006240        1.27      1.27      1.44      0.01         0.01
  WS02006240WS02006239        1.31      1.31      1.41      0.01         0.01
  WS02006239WS02006238        1.52      1.52      1.63      0.01         0.01
  WS02006238WS02006235        1.62      1.62      1.73      0.01         0.02
  WS02006235WS02006234        1.51      1.51      1.59      5.84         0.15
  WS02006234WS02006232        1.59      1.59      1.97      0.01         0.01
  WS02006232WS02006231        1.46      1.46      1.97      0.01         0.01
  WS02006231WS02006230        1.39      1.39      1.51      6.15         0.13
  WS02006230WS02006229        2.09      2.77      2.09      6.45         1.92
  WS02006228WS02006109        2.06      2.08      2.06      4.15         2.06
  WS02006116WS02004401        1.00      1.00      1.03      0.85         0.84
  WS02006115WS02006116        0.62      0.62      0.65      0.39         0.38
  WS02006113WS02006111        0.01      0.01      0.01      0.05         0.01
  WS02006112WS02006115        0.47      0.47      1.95      0.01         0.01
  WS02006111WS02006112        0.01      0.01      3.06      0.01         0.01
  WS02006110WS02006113        0.01      0.01      2.07      0.01         0.01
  WS02006109WS02006110        1.89      1.89      2.08      1.89         0.01
  WS02004411WS02004412        0.01      0.01      0.01      0.95         0.01
  WS02004401WS02004402        1.02      1.03      1.12      0.20         0.21
  WS02004410WS02004411        0.01      0.01      0.01      0.79         0.01
  WS02004409WS02004410        0.01      0.01      0.01      0.41         0.01
  WS02004406WS02004407        0.01      0.01      1.39      0.01         0.01
  WS02004405WS02004406        1.39      1.58      1.39      1.92         1.39
  WS02004404WS02004405        1.58      1.75      1.58      6.43         1.58
  WS02004403WS02004404        1.13      1.13      1.75      0.01         0.01
  WS02004402WS02004403        1.12      1.12      1.13      0.98         0.97
  WS02003072WS02003073        0.01      0.01      0.01      2.52         0.01
  HS02004876HS02004881        0.01      0.01      0.01      0.86         0.01
  HS02004817HS02004824        0.01      0.01      0.32      0.01         0.01
  HS02004785HS02004788        0.01      0.01      0.01      0.81         0.01
  HS02004480HS02004478        0.01      0.01      0.01      1.81         0.01
  HS02004817HS02004807        0.01      0.01      0.32      0.01         0.01
  YS02001759YS02001757        6.35      6.35      6.36      0.01         0.01
  YS02001762YS02001759        6.34      6.34      6.35      0.01         0.01
  YS02001765YS02001762        6.34      6.34      6.34      0.01         0.01
  YS02001770YS02001767        6.33      6.33      6.33      1.75         0.53
  YS02001774YS02001770        6.33      6.33      6.34      0.01         0.01
  YS02001779YS02001774        6.31      6.31      6.34      0.01         0.01
  YS02001649YS02001757        6.34      6.34      6.36      0.01         0.01
  YS02001767YS02001765        6.33      6.33      6.34      0.01         0.01
  YS02006561YS02001783        2.42      2.42      2.93      0.01         0.01
  YS02001783YS02001784        2.92      2.93      2.98      2.80         2.74
  YS02001784YS02001785        2.88      2.98      2.88      3.51         2.87
  YS02001788YS02001790        2.83      2.83      4.30      0.01         0.01
  YS02001790YS02001791        4.30      4.30      4.43      2.33         2.25
  YS02001791YS02001793        4.43      4.43      4.90      0.01         0.01
  YS02001910YS02001907        2.75      2.75      3.05      0.01         0.01
  YS02001786YS02001788        2.83      2.88      2.83      3.20         2.82
  YS02001915YS02001910        2.56      2.56      2.75      0.01         0.01
  YS02001918YS02001915        2.33      2.33      2.56      0.01         0.01
  YS02001923YS02001920        2.16      2.16      2.37      0.01         0.01
  YS02001926YS02001923        0.01      0.01      0.01      0.01         0.01
  YS02001929YS02001926        0.01      0.01      0.01      0.01         0.01
  YS02001920YS02001918        2.33      2.33      2.37      0.01         0.01
  YS02001629YS02163301        6.33      6.33      6.33      0.01         0.01
  YS02001619YS02001622        6.31      6.31      6.31      0.01         0.01
  YS02001622YS02001625        6.31      6.31      6.32      0.01         0.01
  YS02001625YS02001629        6.31      6.31      6.32      0.01         0.01
  YS02163301YS02001633        6.33      6.33      6.33      0.01         0.01
  YS02163601YS02164001        6.33      6.33      6.34      0.01         0.01
  YS02164001YS02001641        6.33      6.33      6.34      0.01         0.02
  YS02001641YS02001644        6.34      6.34      6.34      3.05         3.17
  YS02001647YS02001649        6.32      6.32      6.34      0.01         0.01
  YS02006553YS02006556        2.90      2.90      3.10      0.01         0.01
  YS02006556YS02006558        2.96      2.96      3.15      0.01         0.01
  YSB6556YSB1171              0.01      0.01      0.43      0.01         0.01
  YS02001907YS02006553        3.54      3.54      3.73      0.01         0.01
  YS02006558YS02006561        2.60      2.88      2.60      3.39         2.60
  YS02001633YS02163601        6.33      6.33      6.34      0.01         0.01
  YS02001644YS02001647        6.32      6.32      6.34      0.01         0.01
  YS02001745YS02001748        0.76      0.76      6.28      0.01         0.01
  YS02001748YS02001751        6.29      6.29      6.30      0.01         0.01
  YS02001751YS02001754        6.30      6.30      6.31      0.01         0.01
  YS02001754YS02001757        6.31      6.31      6.36      0.01         0.01
  YS02001882YS02001884        2.57      2.57      2.60      0.01         0.01
  YS02001884YS02001887        2.65      2.65      2.68      0.01         0.01
  YS02001890YS02001895        2.55      2.55      2.76      0.01         0.01
  YS02001895YS02001898        2.53      2.53      2.55      0.01         0.01
  YS02001898YS02001901        2.55      2.55      2.64      0.01         0.01
  YS02001901YS02001904        2.62      2.62      2.64      0.01         0.01
  YS02001904YS02001907        2.62      2.62      3.13      0.01         0.01
  YS02001887YS02001890        2.70      2.70      2.73      1.55         0.01
  YS02001652YS02001649        6.32      6.32      6.34      0.01         0.01
  YS02001655YS02001652        6.30      6.30      6.31      0.01         0.01
  YS02001658YS02001655        6.29      6.29      6.30      0.01         0.01
  YS02001661YS02001658        1.16      1.16      6.29      0.01         0.01
  YS02001664YS02001661        0.01      0.01      2.73      0.01         0.01
  YSB1174YSB1171              0.01      0.01      0.16      0.01         0.01
  YS02001793JiankangQianchi        4.78      4.78      6.39      0.01         0.01
  YS02001757CaochengTiaoxuchi        5.90      5.90      6.36      0.01         0.01
  
  
  ***************
  Pumping Summary
  ***************
  
  ---------------------------------------------------------------------------------------------------------
                                                  Min       Avg       Max     Total     Power    % Time Off
                        Percent   Number of      Flow      Flow      Flow    Volume     Usage    Pump Curve
  Pump                 Utilized   Start-Ups       LPS       LPS       LPS  10^6 ltr     Kw-hr    Low   High
  ---------------------------------------------------------------------------------------------------------
  CC-Pump-1                0.00           0      0.00      0.00      0.00     0.000      0.00    0.0    0.0
  CC-Pump-2               60.55           8      0.00    129.85    200.00     2.109      1.42    0.0    4.9
  JK-Pump-1                0.00           0      0.00      0.00      0.00     0.000      0.00    0.0    0.0
  JK-Pump-2               91.49           4      0.00    252.45    300.00     5.398     32.26    0.0    0.0
  XR-Pump-1               61.66           9      0.00     65.81     95.00     1.111      5.32    0.0    0.0
  XR-Pump-2                0.00           0      0.00      0.00      0.00     0.000      0.00    0.0    0.0
  XR-Pump-3              100.00           1      0.00     95.00     95.00     2.679     13.34    0.0    0.0
  XR-Pump-4                0.00           0      0.00      0.00      0.00     0.000      0.00    0.0    0.0
  

  Analysis begun on:  Wed Jan  5 18:47:26 2022
  Analysis ended on:  Wed Jan  5 18:47:30 2022
  Total elapsed time: 00:00:04