
  EPA STORM WATER MANAGEMENT MODEL - VERSION 5.1 (Build 5.3.0.dev0)
  --------------------------------------------------------------

  WARNING 04: minimum elevation drop used for Conduit WS02004404WS02004405
  WARNING 03: negative offset ignored for Link YS02001904YS02001907
  
  *********************************************************
  NOTE: The summary statistics displayed in this report are
  based on results found at every computational time step,  
  not just on results from each reporting time step.
  *********************************************************
  
  ****************
  Analysis Options
  ****************
  Flow Units ............... LPS
  Process Models:
    Rainfall/Runoff ........ YES
    RDII ................... NO
    Snowmelt ............... NO
    Groundwater ............ NO
    Flow Routing ........... YES
    Ponding Allowed ........ NO
    Water Quality .......... NO
  Infiltration Method ...... HORTON
  Flow Routing Method ...... DYNWAVE
  Surcharge Method ......... EXTRAN
  Starting Date ............ 08/28/2015 08:00:00
  Ending Date .............. 08/28/2015 15:50:00
  Antecedent Dry Days ...... 8.0
  Report Time Step ......... 00:01:00
  Wet Time Step ............ 00:01:00
  Dry Time Step ............ 00:01:00
  Routing Time Step ........ 5.00 sec
  Variable Time Step ....... YES
  Maximum Trials ........... 8
  Number of Threads ........ 4
  Head Tolerance ........... 0.001500 m
  
  
  **************************        Volume         Depth
  Runoff Quantity Continuity     hectare-m            mm
  **************************     ---------       -------
  Total Precipitation ......         5.556        12.164
  Evaporation Loss .........         0.000         0.000
  Infiltration Loss ........         1.427         3.124
  Surface Runoff ...........         3.072         6.726
  Final Storage ............         1.058         2.316
  Continuity Error (%) .....        -0.016
  
  
  **************************        Volume        Volume
  Flow Routing Continuity        hectare-m      10^6 ltr
  **************************     ---------     ---------
  Dry Weather Inflow .......         0.616         6.165
  Wet Weather Inflow .......         3.071        30.709
  Groundwater Inflow .......         0.000         0.000
  RDII Inflow ..............         0.000         0.000
  External Inflow ..........         0.102         1.024
  External Outflow .........         1.811        18.106
  Flooding Loss ............         1.456        14.564
  Evaporation Loss .........         0.000         0.000
  Exfiltration Loss ........         0.000         0.000
  Initial Stored Volume ....         0.076         0.761
  Final Stored Volume ......         0.614         6.140
  Continuity Error (%) .....        -0.393
  
  
  *************************
  Highest Continuity Errors
  *************************
  Node HS02004842 (16.24%)
  Node YS02001884 (11.44%)
  Node YSB1171 (3.12%)
  Node YS02001774 (3.06%)
  Node HS02004817 (2.99%)
  
  
  ***************************
  Time-Step Critical Elements
  ***************************
  Link WS02006252WS02006251 (51.31%)
  Link 3 (36.66%)
  Link WS02006238WS02006235 (3.41%)
  Link WS02006280WS02006229 (2.00%)
  Link 2 (1.47%)
  
  
  ********************************
  Highest Flow Instability Indexes
  ********************************
  Link YS02001619YS02001622 (39)
  Link YS02163601YS02164001 (39)
  Link YS02001629YS02163301 (39)
  Link YS02163301YS02001633 (38)
  Link WS02006113WS02006111 (38)
  
  
  *************************
  Routing Time Step Summary
  *************************
  Minimum Time Step           :     0.50 sec
  Average Time Step           :     0.84 sec
  Maximum Time Step           :     5.00 sec
  Percent in Steady State     :    -0.00
  Average Iterations per Step :     4.54
  Percent Not Converging      :    21.37
  
  
  ***************************
  Subcatchment Runoff Summary
  ***************************
  
  ------------------------------------------------------------------------------------------------------------------------------
                            Total      Total      Total      Total     Imperv       Perv      Total       Total     Peak  Runoff
                           Precip      Runon       Evap      Infil     Runoff     Runoff     Runoff      Runoff   Runoff   Coeff
  Subcatchment                 mm         mm         mm         mm         mm         mm         mm    10^6 ltr      LPS
  ------------------------------------------------------------------------------------------------------------------------------
  sub0                      12.16       0.00       0.00       0.85      10.05       0.00      10.05        0.01     1.91   0.826
  sub1                      12.16       0.00       0.00       1.34       9.56       0.00       9.56        0.06    14.15   0.786
  sub2                      12.16       0.00       0.00       4.50       6.75       0.00       6.75        0.06    13.75   0.555
  sub3                      12.16       0.00       0.00       4.50       6.71       0.00       6.71        0.15    32.07   0.552
  sub4                      12.16       0.00       0.00       1.34       9.40       0.00       9.40        0.20    40.20   0.773
  sub5                      12.16       0.00       0.00       0.85       9.99       0.00       9.99        0.11    25.19   0.822
  sub7                      12.16       0.00       0.00       1.09       9.81       0.00       9.81        0.03     7.55   0.807
  sub8                      12.16       0.00       0.00       1.09       9.80       0.00       9.80        0.06    14.17   0.806
  sub9                      12.16       0.00       0.00       1.09       9.80       0.00       9.80        0.05    10.64   0.806
  sub10                     12.16       0.00       0.00       0.97       9.89       0.00       9.89        0.11    24.40   0.813
  sub11                     12.16       0.00       0.00       0.97       9.91       0.00       9.91        0.12    26.15   0.815
  sub12                     12.16       0.00       0.00       1.58       9.39       0.00       9.39        0.08    19.06   0.772
  sub14                     12.16       0.00       0.00       1.09       9.80       0.00       9.80        0.09    21.02   0.805
  sub15                     12.16       0.00       0.00       3.65       7.53       0.00       7.53        0.13    29.11   0.619
  sub16                     12.16       0.00       0.00       4.01       7.23       0.00       7.23        0.08    17.47   0.594
  sub17                     12.16       0.00       0.00       3.89       7.34       0.00       7.34        0.06    14.47   0.603
  sub22                     12.16       0.00       0.00       5.23       6.14       0.00       6.14        0.39    88.27   0.505
  sub23                     12.16       0.00       0.00       4.50       6.79       0.00       6.79        0.32    73.89   0.558
  sub60                     12.16       0.00       0.00       1.46       7.71       0.00       7.71        2.34   297.17   0.634
  sub61                     12.16       0.00       0.00       2.07       7.87       0.00       7.87        2.43   359.80   0.647
  sub62                     12.16       0.00       0.00       0.97       8.55       0.00       8.55        2.63   372.87   0.703
  sub63                     12.16       0.00       0.00       3.53       6.89       0.00       6.89        2.09   327.80   0.567
  sub64                     12.16       0.00       0.00       1.82       7.40       0.00       7.40        2.25   282.66   0.608
  sub65                     12.16       0.00       0.00       1.58       7.52       0.00       7.52        2.31   287.20   0.618
  sub66                     12.16       0.00       0.00       3.53       6.36       0.00       6.36        1.95   257.27   0.523
  sub67                     12.16       0.00       0.00       0.97       9.05       0.00       9.05        2.79   452.90   0.744
  sub68                     12.16       0.00       0.00       1.70       8.28       0.00       8.28        2.55   391.99   0.681
  sub69                     12.16       0.00       0.00       1.82       8.61       0.00       8.61        2.01   355.79   0.708
  sub70                     12.16       8.79       0.00       7.03      11.43       0.10      11.53        2.64   335.00   0.550
  sub71                     12.16       0.00       0.00       0.97       8.31       0.00       8.31        1.96   263.63   0.683
  sub72                     12.16       0.00       0.00       0.85       6.56       0.00       6.56        1.34   129.40   0.540
  sub73                     12.16      11.23       0.00       7.88      12.47       0.08      12.54        2.95   300.52   0.536
  sub74                     12.16       0.00       0.00       9.12       2.57       0.00       2.57        1.03   189.59   0.211
  
  
  ******************
  Node Depth Summary
  ******************
  
  ---------------------------------------------------------------------------------
                                 Average  Maximum  Maximum  Time of Max    Reported
                                   Depth    Depth      HGL   Occurrence   Max Depth
  Node                 Type       Meters   Meters   Meters  days hr:min      Meters
  ---------------------------------------------------------------------------------
  WS02001211           JUNCTION     0.63     0.77     5.61     0  07:31        0.77
  WS02001212           JUNCTION     0.37     0.48     5.54     0  07:31        0.48
  WS02001213           JUNCTION     0.60     0.73     5.49     0  03:05        0.73
  WS02003069           JUNCTION     0.44     0.58     5.17     0  03:04        0.58
  WS02003072           JUNCTION     0.50     0.64     5.01     0  03:05        0.64
  WS02003073           JUNCTION     0.30     0.39     4.46     0  03:05        0.39
  WS02003060           JUNCTION     0.39     0.51     5.45     0  03:03        0.51
  WS02003066           JUNCTION     0.24     0.32     5.88     0  02:58        0.32
  WS02003059           JUNCTION     0.67     0.79     5.47     0  03:04        0.79
  WS02003067           JUNCTION     0.59     0.74     6.06     0  02:56        0.74
  WS02004401           JUNCTION     0.70     0.94     6.94     0  02:54        0.94
  WS02004402           JUNCTION     0.73     0.96     6.92     0  02:54        0.96
  WS02004403           JUNCTION     0.75     0.97     6.90     0  02:50        0.97
  WS02004404           JUNCTION     0.83     1.04     6.89     0  02:50        1.04
  WS02004406           JUNCTION     0.83     1.01     6.84     0  02:50        1.01
  WS02004409           JUNCTION     0.52     0.74     6.51     0  02:56        0.74
  WS02004410           JUNCTION     0.54     0.75     6.47     0  02:55        0.75
  WS02004411           JUNCTION     0.55     0.75     6.43     0  02:57        0.75
  WS02004412           JUNCTION     0.57     0.75     6.39     0  02:57        0.75
  WS02004413           JUNCTION     0.72     0.90     6.37     0  02:56        0.90
  WS02004405           JUNCTION     0.82     1.03     6.88     0  02:50        1.02
  WS02006109           JUNCTION     0.79     1.08     7.69     0  02:51        1.06
  WS02006110           JUNCTION     0.77     0.99     7.58     0  02:51        0.99
  WS02006111           JUNCTION     0.23     0.32     7.03     0  02:46        0.32
  WS02006112           JUNCTION     0.88     1.20     7.08     0  02:30        1.19
  WS02006113           JUNCTION     0.36     0.50     7.39     0  02:53        0.50
  WS02006115           JUNCTION     0.60     0.85     6.99     0  02:55        0.85
  WS02006116           JUNCTION     0.68     0.93     6.97     0  02:51        0.93
  WS02006230           JUNCTION     0.77     1.13     7.87     0  02:48        1.13
  WS02006231           JUNCTION     0.52     0.79     7.91     0  02:42        0.79
  WS02006232           JUNCTION     0.65     0.92     7.96     0  02:41        0.91
  WS02006234           JUNCTION     0.57     0.83     7.99     0  02:40        0.83
  WS02006235           JUNCTION     0.60     0.86     8.03     0  02:40        0.86
  WS02006238           JUNCTION     0.63     0.89     8.04     0  02:40        0.88
  WS02006240           JUNCTION     0.53     0.79     8.09     0  02:40        0.79
  WS02006242           JUNCTION     0.58     0.85     8.12     0  02:40        0.85
  WS02006243           JUNCTION     0.46     0.74     8.16     0  02:40        0.74
  WS02006245           JUNCTION     0.44     0.71     8.19     0  02:40        0.70
  WS02006247           JUNCTION     0.46     0.71     8.21     0  02:40        0.71
  WS02006248           JUNCTION     0.40     0.64     8.23     0  02:40        0.64
  WS02006249           JUNCTION     0.43     0.65     8.25     0  02:40        0.65
  WS02006239           JUNCTION     0.58     0.85     8.06     0  02:40        0.85
  WS02006251           JUNCTION     0.42     0.69     8.36     0  02:40        0.69
  WS02006252           JUNCTION     0.36     0.59     8.84     0  03:46        0.59
  WS02006253           JUNCTION     0.45     0.72     8.37     0  02:40        0.72
  WS02006256           JUNCTION     1.02     1.20     8.13     0  04:30        1.20
  WS02004138           JUNCTION     0.14     0.19     7.44     0  07:30        0.19
  WS02004407           JUNCTION     0.24     0.32     6.64     0  02:54        0.32
  WS02006228           JUNCTION     0.79     1.13     7.78     0  02:51        1.13
  WS02006229           JUNCTION     0.77     1.14     7.83     0  02:53        1.14
  WS02006280           JUNCTION     0.07     0.19     8.46     0  03:02        0.19
  WS02006284           JUNCTION     0.37     0.55     8.95     0  03:02        0.55
  WS02006287           JUNCTION     0.10     0.28     9.24     0  03:01        0.28
  WSF200               JUNCTION     0.23     0.35     5.58     0  03:01        0.35
  HS02004901           JUNCTION     0.13     0.28    10.10     0  03:01        0.28
  HS02004881           JUNCTION     0.01     0.04     9.07     0  03:01        0.04
  HS02004876           JUNCTION     0.05     0.12     9.15     0  03:01        0.12
  HS02004870           JUNCTION     0.02     0.06     9.35     0  03:01        0.06
  HS02004862           JUNCTION     0.02     0.07     9.46     0  03:01        0.07
  HS02004856           JUNCTION     0.08     0.13     9.55     0  03:01        0.13
  HS02004852           JUNCTION     0.01     0.05     9.56     0  03:01        0.05
  HS02004848           JUNCTION     0.01     0.05     9.65     0  03:01        0.05
  HS02004842           JUNCTION     0.33     0.38     9.65     0  03:01        0.38
  HS02004837           JUNCTION     0.03     0.07     9.65     0  03:01        0.07
  HS02004830           JUNCTION     0.04     0.08     9.55     0  03:01        0.08
  HS02004824           JUNCTION     0.02     0.06     9.46     0  03:01        0.06
  HS02004817           JUNCTION     0.44     0.60     9.44     0  03:01        0.60
  HS02004807           JUNCTION     0.13     0.27     9.44     0  03:01        0.27
  HS02004802           JUNCTION     0.17     0.30     9.43     0  03:01        0.30
  HS02004799           JUNCTION     0.13     0.33     9.54     0  03:01        0.33
  HS02004792           JUNCTION     0.04     0.14     9.66     0  03:01        0.14
  HS02004788           JUNCTION     0.03     0.10    10.00     0  03:01        0.10
  HS02004785           JUNCTION     0.05     0.17    10.07     0  03:01        0.17
  HS02004777           JUNCTION     0.15     0.30    10.10     0  03:01        0.30
  HS02004770           JUNCTION     0.12     0.27    10.10     0  03:01        0.27
  HS02004480           JUNCTION     0.09     0.26     9.50     0  03:01        0.26
  HS02004479           JUNCTION     0.12     0.30     9.50     0  03:01        0.30
  HS02004478           JUNCTION     0.07     0.18     9.41     0  03:01        0.18
  YS02001745           JUNCTION     0.68     0.88     8.39     0  03:14        0.88
  YS02001748           JUNCTION     1.07     1.93     9.01     0  02:46        1.32
  YS02001751           JUNCTION     1.25     1.96     8.84     0  02:46        1.52
  YS02001754           JUNCTION     1.50     1.96     8.56     0  02:46        1.80
  YS02001762           JUNCTION     1.70     2.03     8.43     0  03:15        2.02
  YS02001765           JUNCTION     1.65     1.98     8.43     0  03:05        1.97
  YS02001767           JUNCTION     1.62     1.93     8.42     0  03:15        1.92
  YS02001770           JUNCTION     1.61     1.91     8.40     0  02:59        1.90
  YS02001774           JUNCTION     1.68     1.97     8.39     0  03:57        1.96
  YS02001779           JUNCTION     1.43     1.68     8.37     0  02:44        1.68
  YS02001882           JUNCTION     0.53     1.61     8.33     0  02:52        1.60
  YS02001884           JUNCTION     0.62     1.71     8.33     0  02:52        1.70
  YS02001759           JUNCTION     1.73     2.07     8.43     0  03:11        2.06
  YS02001887           JUNCTION     0.70     1.79     8.32     0  02:57        1.78
  YS02001890           JUNCTION     0.73     1.81     8.31     0  02:59        1.80
  YS02001898           JUNCTION     0.50     1.55     8.29     0  03:00        1.55
  YS02001901           JUNCTION     0.62     1.67     8.28     0  02:59        1.67
  YS02001904           JUNCTION     0.60     1.63     8.26     0  03:02        1.63
  YS02001907           JUNCTION     0.92     1.96     8.25     0  02:52        1.96
  YS02001910           JUNCTION     0.71     1.78     8.28     0  02:53        1.77
  YS02001915           JUNCTION     0.51     1.59     8.30     0  02:53        1.57
  YS02001918           JUNCTION     0.26     1.26     8.32     0  02:53        1.25
  YS02001619           JUNCTION     1.22     1.61     8.54     0  02:34        1.47
  YS02001629           JUNCTION     1.57     1.85     8.40     0  02:40        1.85
  YS02001641           JUNCTION     1.67     1.94     8.38     0  02:43        1.93
  YS02001644           JUNCTION     1.67     1.92     8.35     0  02:42        1.92
  YS02001652           JUNCTION     1.51     2.16     8.76     0  03:03        1.91
  YS02001655           JUNCTION     1.28     2.20     9.05     0  02:43        1.73
  YS02001920           JUNCTION     0.36     1.33     8.34     0  02:53        1.32
  YS02001923           JUNCTION     0.20     1.09     8.35     0  02:53        1.08
  YS02001926           JUNCTION     0.26     0.90     8.34     0  02:53        0.89
  YS02001929           JUNCTION     0.14     0.68     8.37     0  02:53        0.63
  YS02001658           JUNCTION     1.01     2.30     9.44     0  02:43        1.51
  YS02001661           JUNCTION     0.79     2.46     9.86     0  03:03        1.43
  YS02001664           JUNCTION     0.34     0.57     8.50     0  03:49        0.57
  YS02001622           JUNCTION     1.24     1.62     8.52     0  02:34        1.49
  YS02001633           JUNCTION     1.66     1.95     8.40     0  02:42        1.94
  YS02001649           JUNCTION     1.71     2.05     8.44     0  02:43        2.05
  YS02001757           JUNCTION     1.83     2.17     8.43     0  03:20        2.16
  YS02001895           JUNCTION     0.49     1.56     8.30     0  03:00        1.55
  YS02001625           JUNCTION     1.52     1.78     8.38     0  02:40        1.78
  YS02163301           JUNCTION     1.60     1.89     8.41     0  02:42        1.87
  YS02163601           JUNCTION     1.71     2.00     8.40     0  02:42        1.98
  YS02164001           JUNCTION     1.65     1.93     8.39     0  02:43        1.91
  YS02001647           JUNCTION     1.50     1.82     8.43     0  02:42        1.79
  YSB1154              JUNCTION     0.26     0.45     9.51     0  03:01        0.45
  YSB6556              JUNCTION     0.16     0.34     9.51     0  03:01        0.34
  YSB1174              JUNCTION     0.22     0.40     9.51     0  03:01        0.40
  YSB1171              JUNCTION     0.41     0.60     9.51     0  03:01        0.60
  YS02006553           JUNCTION     0.92     1.96     8.25     0  02:59        1.96
  YS02006561           JUNCTION     0.31     1.08     7.74     0  03:03        1.07
  YS02006556           JUNCTION     0.89     1.92     8.23     0  02:59        1.91
  YS02006558           JUNCTION     0.94     1.96     8.23     0  02:59        1.95
  YS02001783           JUNCTION     0.54     2.40     8.54     0  02:33        1.46
  YS02001784           JUNCTION     0.57     2.29     8.36     0  02:33        1.41
  YS02001786           JUNCTION     0.52     1.97     8.00     0  02:33        1.25
  YS02001788           JUNCTION     0.47     1.84     7.81     0  02:33        1.12
  YS02001790           JUNCTION     0.61     1.96     7.60     0  02:31        1.29
  YS02001791           JUNCTION     0.62     1.61     7.08     0  02:33        1.27
  YS02001793           JUNCTION     0.90     2.89     7.72     0  02:29        1.80
  WS02004139           JUNCTION     0.57     0.71     5.62     0  07:31        0.71
  WSC                  OUTFALL      0.30     0.39     1.06     0  03:06        0.39
  3                    OUTFALL      0.08     0.20     6.20     0  04:30        0.20
  4                    OUTFALL      0.02     0.15     7.15     0  02:40        0.15
  5                    OUTFALL      0.00     0.00     5.00     0  00:00        0.00
  JK-storage           STORAGE      3.60     5.80     6.60     0  02:33        5.80
  CC-storage           STORAGE      1.05     1.37     8.37     0  05:51        1.37
  XR-storage           STORAGE      7.42     7.72     5.72     0  02:10        7.72
  
  
  *******************
  Node Inflow Summary
  *******************
  
  -------------------------------------------------------------------------------------------------
                                  Maximum  Maximum                  Lateral       Total        Flow
                                  Lateral    Total  Time of Max      Inflow      Inflow     Balance
                                   Inflow   Inflow   Occurrence      Volume      Volume       Error
  Node                 Type           LPS      LPS  days hr:min    10^6 ltr    10^6 ltr     Percent
  -------------------------------------------------------------------------------------------------
  WS02001211           JUNCTION      7.35   381.26     0  07:30       0.207        6.02       0.624
  WS02001212           JUNCTION      0.00   376.88     0  07:31           0        5.98       0.331
  WS02001213           JUNCTION      0.00   375.23     0  07:31           0        5.96       0.404
  WS02003069           JUNCTION      0.32   936.19     0  03:04     0.00902        14.6       0.210
  WS02003072           JUNCTION      0.00   936.19     0  03:04           0        14.6       0.258
  WS02003073           JUNCTION      1.82   938.15     0  03:05      0.0514        14.6       0.296
  WS02003060           JUNCTION     16.53   936.08     0  03:04       0.466        14.7       0.198
  WS02003066           JUNCTION      0.00   639.29     0  02:56           0        8.31       0.051
  WS02003059           JUNCTION      0.00   374.29     0  07:32           0        5.94       0.663
  WS02003067           JUNCTION      0.00   639.16     0  02:56           0        8.32       0.109
  WS02004401           JUNCTION      0.00   645.15     0  02:48           0        8.54       0.233
  WS02004402           JUNCTION      0.00   641.93     0  02:51           0        8.52       0.222
  WS02004403           JUNCTION      0.00   640.69     0  02:50           0         8.5       0.203
  WS02004404           JUNCTION      0.16   639.97     0  02:54     0.00457        8.49       0.155
  WS02004406           JUNCTION      0.00   640.06     0  02:54           0        8.46       0.378
  WS02004409           JUNCTION      0.00   639.83     0  02:54           0        8.42       0.180
  WS02004410           JUNCTION      0.00   639.66     0  02:55           0        8.41       0.206
  WS02004411           JUNCTION      0.00   639.54     0  02:55           0        8.39       0.214
  WS02004412           JUNCTION      0.00   639.40     0  02:55           0        8.37       0.234
  WS02004413           JUNCTION      0.00   639.35     0  02:55           0        8.35       0.348
  WS02004405           JUNCTION      0.04   639.97     0  02:54     0.00107        8.48       0.232
  WS02006109           JUNCTION      1.23   626.89     0  02:51      0.0347        8.59       0.234
  WS02006110           JUNCTION      0.00   626.93     0  02:53           0        8.57       0.210
  WS02006111           JUNCTION      0.00   657.08     0  02:56           0        8.55       0.044
  WS02006112           JUNCTION     14.47   646.91     0  02:48      0.0629         8.6       0.321
  WS02006113           JUNCTION      0.00   628.38     0  02:53           0        8.55       0.094
  WS02006115           JUNCTION      0.00   646.45     0  02:48           0        8.58       0.210
  WS02006116           JUNCTION      0.00   645.10     0  02:50           0        8.56       0.202
  WS02006230           JUNCTION     10.28   397.47     0  07:21        0.29        6.71       0.178
  WS02006231           JUNCTION      0.00   390.67     0  07:17           0        6.42       0.151
  WS02006232           JUNCTION      0.00   390.40     0  07:18           0        6.44       0.225
  WS02006234           JUNCTION      0.00   389.67     0  06:04           0        6.45       0.098
  WS02006235           JUNCTION      0.00   389.88     0  06:04           0        6.48       0.144
  WS02006238           JUNCTION      0.00   341.51     0  03:50           0        4.72       0.132
  WS02006240           JUNCTION      0.00   337.12     0  07:05           0        4.71       0.213
  WS02006242           JUNCTION      0.00   338.38     0  07:01           0        4.71       0.278
  WS02006243           JUNCTION      0.00   341.33     0  07:01           0         4.7      -0.132
  WS02006245           JUNCTION      0.00   343.71     0  07:01           0        4.71       0.215
  WS02006247           JUNCTION      0.00   347.40     0  06:01           0        4.71       0.141
  WS02006248           JUNCTION      0.00   354.91     0  03:20           0        4.72       0.065
  WS02006249           JUNCTION      0.00   459.81     0  02:40           0        5.19       0.219
  WS02006239           JUNCTION      0.00   340.95     0  03:50           0        4.71       0.160
  WS02006251           JUNCTION      0.08   460.45     0  02:40     0.00217        5.22       0.168
  WS02006252           JUNCTION      0.00   400.00     0  03:40           0        4.84       0.009
  WS02006253           JUNCTION      1.91    80.98     0  03:01     0.00814       0.384       1.053
  WS02006256           JUNCTION      0.00   599.85     0  04:30           0        4.85       0.051
  WS02004138           JUNCTION      0.00   379.98     0  06:40           0        5.84       0.078
  WS02004407           JUNCTION      0.00   640.10     0  02:54           0        8.43       0.079
  WS02006228           JUNCTION      0.00   625.72     0  02:51           0        8.57       0.157
  WS02006229           JUNCTION      0.00   624.69     0  02:54           0        8.58       0.133
  WS02006280           JUNCTION      0.00   375.55     0  03:02           0        1.89       0.004
  WS02006284           JUNCTION      0.10   375.54     0  03:02      0.0027        1.89       0.064
  WS02006287           JUNCTION      0.00   375.27     0  03:01           0        1.89       0.038
  WSF200               JUNCTION      0.00   639.32     0  02:56           0        8.31       0.046
  HS02004901           JUNCTION     17.47    17.47     0  03:01      0.0757      0.0759       2.380
  HS02004881           JUNCTION      7.55    79.19     0  03:01      0.0331       0.357       0.039
  HS02004876           JUNCTION     14.15    72.10     0  03:01      0.0636       0.324       0.171
  HS02004870           JUNCTION     14.17    58.27     0  03:01      0.0626       0.261       0.043
  HS02004862           JUNCTION     13.95    44.46     0  03:01      0.0685       0.198       0.089
  HS02004856           JUNCTION     10.64    30.79     0  03:01      0.0471       0.131       1.116
  HS02004852           JUNCTION      0.00    20.44     0  03:01           0       0.084       0.069
  HS02004848           JUNCTION     32.07    32.07     0  03:01       0.151       0.151       0.033
  HS02004842           JUNCTION      0.00    11.42     0  03:01           0      0.0801      19.388
  HS02004837           JUNCTION     30.75    41.91     0  03:01       0.288       0.355       0.229
  HS02004830           JUNCTION      0.15    41.84     0  03:01     0.00423       0.346       0.359
  HS02004824           JUNCTION     40.25    81.79     0  03:01       0.197       0.542       0.100
  HS02004817           JUNCTION      0.60    82.18     0  03:01      0.0169       0.558       3.079
  HS02004807           JUNCTION     26.15   107.24     0  03:01       0.115       0.657       0.656
  HS02004802           JUNCTION      0.00   106.49     0  03:01           0       0.653       0.617
  HS02004799           JUNCTION     21.02   227.51     0  03:01      0.0932        1.06       0.236
  HS02004792           JUNCTION     88.55   207.32     0  03:01       0.396       0.966       0.043
  HS02004788           JUNCTION     30.78   119.37     0  03:01       0.177       0.571       0.069
  HS02004785           JUNCTION      0.15    89.79     0  03:01     0.00423       0.396       0.125
  HS02004777           JUNCTION      0.03    90.24     0  03:01    0.000846       0.397       1.326
  HS02004770           JUNCTION     73.89    90.93     0  03:01       0.324       0.398       0.787
  HS02004480           JUNCTION      0.00   269.28     0  03:01           0        1.25       0.099
  HS02004479           JUNCTION      0.00    42.82     0  03:02           0       0.204       0.360
  HS02004478           JUNCTION      0.00   375.17     0  03:01           0        1.89       0.018
  YS02001745           JUNCTION    297.18   297.18     0  03:01        2.34        2.34       0.423
  YS02001748           JUNCTION      0.04   429.64     0  02:42     0.00127        2.33       0.996
  YS02001751           JUNCTION      0.01   307.48     0  03:01     0.00031        2.31       1.030
  YS02001754           JUNCTION      0.26   307.52     0  03:01     0.00733        2.29       1.095
  YS02001762           JUNCTION      0.00   342.07     0  02:56           0        1.82       1.169
  YS02001765           JUNCTION      0.00   342.07     0  02:56           0        1.82       1.346
  YS02001767           JUNCTION      0.54   342.03     0  02:56      0.0151        1.84       1.975
  YS02001770           JUNCTION    373.02   373.02     0  03:01        2.63        2.65       1.215
  YS02001774           JUNCTION      0.00   305.02     0  03:19           0       0.812       3.161
  YS02001779           JUNCTION      0.01   305.59     0  03:19    0.000141       0.782       2.003
  YS02001882           JUNCTION      0.00    19.53     0  02:35           0       0.017      15.217
  YS02001884           JUNCTION      0.00    45.79     0  02:35           0      0.0528      12.919
  YS02001759           JUNCTION    359.84   672.10     0  02:56        2.43         4.2       0.548
  YS02001887           JUNCTION    453.35   453.53     0  03:01         2.8        2.83       0.299
  YS02001890           JUNCTION      0.00   453.81     0  03:01           0        2.79       0.331
  YS02001898           JUNCTION      0.00   453.55     0  03:01           0        2.77       0.115
  YS02001901           JUNCTION      0.00   453.88     0  03:01           0        2.77       0.247
  YS02001904           JUNCTION      0.00   453.62     0  03:01           0        2.77       0.226
  YS02001907           JUNCTION      0.00   862.20     0  02:58           0        6.12       0.396
  YS02001910           JUNCTION      0.00   431.76     0  02:54           0        3.37       0.347
  YS02001915           JUNCTION    263.65   431.57     0  02:54        1.96        3.39       0.179
  YS02001918           JUNCTION      0.00   197.42     0  02:54           0        1.43       0.130
  YS02001619           JUNCTION    257.27   257.27     0  03:01        1.95        1.95       0.628
  YS02001629           JUNCTION      0.00   210.00     0  02:50           0        1.64       1.791
  YS02001641           JUNCTION      0.00   444.11     0  02:50           0        3.85       0.548
  YS02001644           JUNCTION    282.70  1030.01     0  03:19        2.25        8.21       0.320
  YS02001652           JUNCTION      0.00   370.30     0  03:01           0        2.04       1.136
  YS02001655           JUNCTION      0.15   369.89     0  03:01     0.00434        2.07       1.237
  YS02001920           JUNCTION      2.87   197.50     0  02:54      0.0809        1.43       0.206
  YS02001923           JUNCTION      0.04   205.33     0  02:54     0.00106        1.34       0.050
  YS02001926           JUNCTION      0.05   177.07     0  02:54     0.00147        1.34       0.247
  YS02001929           JUNCTION    129.40   129.40     0  03:01        1.34        1.34       0.040
  YS02001658           JUNCTION      0.00   489.30     0  02:42           0        2.09       1.141
  YS02001661           JUNCTION      0.00   693.31     0  02:55           0        2.72      -0.228
  YS02001664           JUNCTION    327.80   355.38     0  02:53        2.09        2.72       0.201
  YS02001622           JUNCTION      0.00   257.61     0  03:01           0        1.94       1.663
  YS02001633           JUNCTION    287.40   444.26     0  02:50        2.32        3.91       0.826
  YS02001649           JUNCTION      0.00   944.81     0  02:50           0         5.3       0.707
  YS02001757           JUNCTION      0.00  1794.84     0  02:51           0        9.52       0.979
  YS02001895           JUNCTION      0.00   453.79     0  03:01           0        2.78       0.176
  YS02001625           JUNCTION      0.00   257.36     0  03:01           0         1.9       2.051
  YS02163301           JUNCTION      0.00   209.89     0  02:50           0        1.62       1.497
  YS02163601           JUNCTION      0.11   444.25     0  02:50      0.0031        3.87       0.782
  YS02164001           JUNCTION      0.00   444.23     0  02:50           0        3.85       0.519
  YS02001647           JUNCTION      0.00   674.87     0  02:50           0        4.32       0.658
  YSB1154              JUNCTION     25.19    25.19     0  03:01       0.113       0.114       1.285
  YSB6556              JUNCTION      0.00    24.91     0  03:01           0       0.115       1.100
  YSB1174              JUNCTION     19.06    19.06     0  03:01      0.0821      0.0827       1.580
  YSB1171              JUNCTION      0.00    43.19     0  03:01           0       0.203       3.220
  YS02006553           JUNCTION      0.00   666.50     0  03:17           0         5.9       0.263
  YS02006561           JUNCTION      0.00   964.17     0  03:01           0        8.42       0.008
  YS02006556           JUNCTION      0.00   666.50     0  03:16           0         5.9       0.191
  YS02006558           JUNCTION    392.87   964.55     0  03:00        2.57        8.44       0.064
  YS02001783           JUNCTION      0.00   964.14     0  03:01           0        8.41       0.028
  YS02001784           JUNCTION      1.06   965.23     0  03:00      0.0299        8.44       0.044
  YS02001786           JUNCTION      0.06   965.24     0  03:01     0.00159        8.44       0.041
  YS02001788           JUNCTION      0.07   965.32     0  03:01       0.002        8.44       0.024
  YS02001790           JUNCTION      0.15   965.49     0  03:01     0.00437        8.44       0.028
  YS02001791           JUNCTION      0.00   965.53     0  03:01           0        8.44       0.015
  YS02001793           JUNCTION      0.00   965.58     0  03:00           0        8.44       0.000
  WS02004139           JUNCTION      0.32   379.65     0  07:30     0.00905        5.85       0.656
  WSC                  OUTFALL       0.00   938.35     0  03:06           0        14.6       0.000
  3                    OUTFALL       0.00   480.41     0  04:30           0        3.05       0.000
  4                    OUTFALL       0.00   201.96     0  02:40           0       0.465       0.000
  5                    OUTFALL       0.00     0.00     0  00:00           0           0       0.000 ltr
  JK-storage           STORAGE       0.00   987.73     0  02:28           0        8.59      -1.189
  CC-storage           STORAGE       0.00  1794.74     0  02:51           0         8.3       0.743
  XR-storage           STORAGE     690.11   690.11     0  03:01        9.61        10.2      -0.001
  
  
  **********************
  Node Surcharge Summary
  **********************
  
  Surcharging occurs when water rises above the top of the highest conduit.
  ---------------------------------------------------------------------
                                               Max. Height   Min. Depth
                                   Hours       Above Crown    Below Rim
  Node                 Type      Surcharged         Meters       Meters
  ---------------------------------------------------------------------
  WS02004404           JUNCTION        0.60          0.038        2.742
  WS02004406           JUNCTION        0.37          0.013        2.437
  WS02004405           JUNCTION        0.48          0.026        2.774
  WS02006109           JUNCTION        2.33          0.256        1.564
  WS02006110           JUNCTION        0.97          0.084        1.766
  WS02006112           JUNCTION        1.03          0.196        1.484
  WS02006230           JUNCTION        0.48          0.046        1.524
  WS02006231           JUNCTION        0.69          0.077        1.453
  WS02006232           JUNCTION        2.32          0.217        1.263
  WS02006234           JUNCTION        0.80          0.113        1.127
  WS02006235           JUNCTION        1.56          0.154        1.136
  WS02006238           JUNCTION        1.90          0.171        1.259
  WS02006240           JUNCTION        0.58          0.083        1.307
  WS02006242           JUNCTION        1.39          0.123        0.697
  WS02006243           JUNCTION        0.18          0.028        0.742
  WS02006247           JUNCTION        0.01          0.000        0.760
  WS02006239           JUNCTION        0.86          0.109        1.181
  WS02006252           JUNCTION        2.01          0.193        0.907
  WS02006228           JUNCTION        2.20          0.302        1.898
  YS02001748           JUNCTION        5.04          0.854        0.336
  YS02001751           JUNCTION        5.21          0.957        0.243
  YS02001754           JUNCTION        5.40          0.907        0.243
  YS02001762           JUNCTION        5.64          1.029        0.121
  YS02001765           JUNCTION        5.61          0.975        0.125
  YS02001767           JUNCTION        5.58          0.934        0.096
  YS02001770           JUNCTION        5.57          0.879        0.041
  YS02001774           JUNCTION        5.63          0.972        0.078
  YS02001779           JUNCTION        5.40          0.680        0.000
  YS02001882           JUNCTION        0.80          0.610        0.220
  YS02001884           JUNCTION        0.84          0.649        0.221
  YS02001759           JUNCTION        5.66          1.068        0.142
  YS02001887           JUNCTION        0.93          0.736        0.214
  YS02001890           JUNCTION        0.96          0.758        0.002
  YS02001898           JUNCTION        0.76          0.523        0.217
  YS02001901           JUNCTION        0.89          0.670        0.200
  YS02001904           JUNCTION        0.87          0.635        0.215
  YS02001907           JUNCTION        1.48          0.950        0.000
  YS02001910           JUNCTION        1.01          0.777        0.323
  YS02001915           JUNCTION        0.79          0.586        0.414
  YS02001918           JUNCTION        0.53          0.259        0.551
  YS02001619           JUNCTION        5.23          0.610        0.000
  YS02001629           JUNCTION        5.24          0.470        0.000
  YS02001641           JUNCTION        5.62          0.940        0.160
  YS02001644           JUNCTION        5.62          0.920        0.000
  YS02001652           JUNCTION        5.41          1.130        0.000
  YS02001655           JUNCTION        5.26          1.200        0.000
  YS02001920           JUNCTION        0.57          0.332        0.808
  YS02001658           JUNCTION        5.07          1.300        0.000
  YS02001661           JUNCTION        0.20          1.390        0.000
  YS02001622           JUNCTION        5.25          0.620        0.000
  YS02001633           JUNCTION        5.60          0.927        0.133
  YS02001649           JUNCTION        5.64          1.050        0.000
  YS02001757           JUNCTION        5.74          1.170        0.040
  YS02001895           JUNCTION        0.77          0.557        0.193
  YS02001625           JUNCTION        5.43          0.780        0.000
  YS02163301           JUNCTION        5.58          0.889        0.141
  YS02163601           JUNCTION        5.64          0.998        0.082
  YS02164001           JUNCTION        5.61          0.931        0.169
  YS02001647           JUNCTION        5.42          0.816        0.084
  YS02006553           JUNCTION        1.55          0.965        0.225
  YS02006561           JUNCTION        0.67          0.280        0.870
  YS02006556           JUNCTION        1.24          0.879        0.471
  YS02006558           JUNCTION        1.20          0.859        0.541
  YS02001783           JUNCTION        1.36          1.600        0.000
  YS02001784           JUNCTION        1.41          1.490        0.000
  YS02001786           JUNCTION        1.35          1.173        0.257
  YS02001788           JUNCTION        1.35          1.036        0.444
  YS02001790           JUNCTION        2.63          1.157        0.000
  YS02001791           JUNCTION        2.81          0.806        1.114
  YS02001793           JUNCTION        3.10          1.889        0.711
  
  
  *********************
  Node Flooding Summary
  *********************
  
  Flooding refers to all water that overflows a node, whether it ponds or not.
  --------------------------------------------------------------------------
                                                             Total   Maximum
                                 Maximum   Time of Max       Flood    Ponded
                        Hours       Rate    Occurrence      Volume     Depth
  Node                 Flooded       LPS   days hr:min    10^6 ltr    Meters
  --------------------------------------------------------------------------
  YS02001779              2.48    305.43      0  03:19       0.762     0.000
  YS02001907              0.39    277.47      0  02:58       0.212     0.000
  YS02001619              0.01     39.38      0  02:34       0.000     0.000
  YS02001629              0.01     25.34      0  02:40       0.000     0.000
  YS02001644              3.67   1030.00      0  03:19       5.980     0.000
  YS02001652              0.01     18.63      0  03:03       0.000     0.000
  YS02001655              0.01     23.08      0  03:03       0.000     0.000
  YS02001658              0.01    147.01      0  02:43       0.000     0.000
  YS02001661              0.01    167.63      0  03:03       0.000     0.000
  YS02001622              0.01      6.02      0  02:34       0.000     0.000
  YS02001649              0.07     48.32      0  03:03       0.004     0.000
  YS02001625              0.87    167.33      0  03:01       0.231     0.000
  YS02001783              0.01     68.59      0  02:33       0.000     0.000
  YS02001784              0.01     79.58      0  02:33       0.000     0.000
  YS02001790              0.01    101.42      0  02:31       0.000     0.000
  JK-storage              2.34    962.05      0  03:10       3.788     0.000
  XR-storage              4.43    415.11      0  03:40       3.587     0.000
  
  
  **********************
  Storage Volume Summary
  **********************
  
  --------------------------------------------------------------------------------------------------
                         Average     Avg  Evap Exfil       Maximum     Max    Time of Max    Maximum
                          Volume    Pcnt  Pcnt  Pcnt        Volume    Pcnt     Occurrence    Outflow
  Storage Unit           1000 m3    Full  Loss  Loss       1000 m3    Full    days hr:min        LPS
  --------------------------------------------------------------------------------------------------
  JK-storage               0.181      62     0     0         0.291     100       0  02:33     599.85
  CC-storage               2.940      19     0     0         3.821      24       0  05:51     400.00
  XR-storage               0.891      96     0     0         0.926     100       0  02:10     379.98
  
  
  ***********************
  Outfall Loading Summary
  ***********************
  
  -----------------------------------------------------------
                         Flow       Avg       Max       Total
                         Freq      Flow      Flow      Volume
  Outfall Node           Pcnt       LPS       LPS    10^6 ltr
  -----------------------------------------------------------
  WSC                   99.99    591.13    938.35      14.586
  3                     78.51    182.80    480.41       3.054
  4                     37.79     53.90    201.96       0.465
  5                      0.00      0.00      0.00       0.000
  -----------------------------------------------------------
  System                54.08    827.83   1273.82      18.106
  
  
  ********************
  Link Flow Summary
  ********************
  
  -----------------------------------------------------------------------------
                                 Maximum  Time of Max   Maximum    Max/    Max/
                                  |Flow|   Occurrence   |Veloc|    Full    Full
  Link                 Type          LPS  days hr:min     m/sec    Flow   Depth
  -----------------------------------------------------------------------------
  WS02003066WSF200     CONDUIT    639.32     0  02:56      2.84    0.11    0.26
  WS02006287WS02006284 CONDUIT    375.45     0  03:02      1.98    0.17    0.29
  WS02006284WS02006280 CONDUIT    375.55     0  03:02      2.22    0.16    0.27
  WS02006280WS02006229 CONDUIT    375.58     0  03:02      3.58    0.08    0.19
  WS02006229WS02006228 CONDUIT    625.72     0  02:51      1.24    2.07    1.00
  WS02006256WS02006235 CONDUIT    166.25     0  00:01      2.58    1.76    1.00
  WS02006253WS02006251 CONDUIT     87.95     0  02:58      0.50    0.26    0.99
  WS02006252WS02006251 CONDUIT    400.76     0  07:00      3.19    1.47    1.00
  WS02006251WS02006249 CONDUIT    459.81     0  02:40      1.21    1.33    0.96
  WS02006249WS02006248 CONDUIT    354.91     0  03:20      1.15    1.94    0.91
  WS02006248WS02006247 CONDUIT    347.40     0  06:01      1.11    0.76    0.96
  WS02006247WS02006245 CONDUIT    343.71     0  07:01      1.07    2.73    1.00
  WS02006245WS02006243 CONDUIT    341.33     0  07:01      1.08    1.01    1.00
  WS02006243WS02006242 CONDUIT    338.38     0  07:01      0.97    0.72    1.00
  WS02006242WS02006240 CONDUIT    337.12     0  07:05      0.93    1.34    1.00
  WS02006240WS02006239 CONDUIT    340.95     0  03:50      0.98    1.07    1.00
  WS02006239WS02006238 CONDUIT    341.51     0  03:50      0.92    1.09    1.00
  WS02006238WS02006235 CONDUIT    341.29     0  03:50      1.25    0.76    1.00
  WS02006235WS02006234 CONDUIT    389.67     0  06:04      1.04    4.11    1.00
  WS02006234WS02006232 CONDUIT    390.40     0  07:18      1.13    0.79    1.00
  WS02006232WS02006231 CONDUIT    390.67     0  07:17      1.06    0.82    1.00
  WS02006231WS02006230 CONDUIT    387.19     0  07:21      1.35    5.87    1.00
  WS02006230WS02006229 CONDUIT    397.42     0  07:22      1.03    8.84    1.00
  WS02006228WS02006109 CONDUIT    625.66     0  02:51      1.24    2.73    1.00
  WS02006116WS02004401 CONDUIT    645.15     0  02:48      0.85    0.89    0.94
  WS02006115WS02006116 CONDUIT    645.10     0  02:50      0.90    0.83    0.86
  WS02006113WS02006111 CONDUIT    657.08     0  02:56      2.59    0.79    0.51
  WS02006112WS02006115 CONDUIT    646.45     0  02:48      0.85    0.38    0.92
  WS02006111WS02006112 CONDUIT    634.30     0  02:48      1.71    0.30    0.69
  WS02006110WS02006113 CONDUIT    628.38     0  02:53      1.44    0.57    0.81
  WS02006109WS02006110 CONDUIT    626.93     0  02:53      1.25    1.21    1.00
  WS02004411WS02004412 CONDUIT    639.40     0  02:55      1.01    0.91    0.75
  WS02004401WS02004402 CONDUIT    641.93     0  02:51      0.83    0.77    0.95
  WS02004413WS02003067 CONDUIT    639.16     0  02:56      1.22    0.27    0.63
  WS02004412WS02004413 CONDUIT    639.35     0  02:55      0.92    0.43    0.83
  WS02004410WS02004411 CONDUIT    639.54     0  02:55      1.01    0.87    0.75
  WS02004409WS02004410 CONDUIT    639.66     0  02:55      1.02    0.83    0.74
  WS02004407WS02004409 CONDUIT    639.83     0  02:54      1.51    0.23    0.53
  WS02004406WS02004407 CONDUIT    640.10     0  02:54      1.16    0.29    0.66
  WS02004405WS02004406 CONDUIT    640.06     0  02:54      0.81    1.26    1.00
  WS02004404WS02004405 CONDUIT    639.93     0  02:54      0.84    6.27    1.00
  WS02004403WS02004404 CONDUIT    639.80     0  02:54      0.82    0.46    0.99
  WS02004402WS02004403 CONDUIT    640.69     0  02:50      0.82    0.92    0.97
  WS02004139WS02001211 CONDUIT    373.91     0  07:30      0.69    0.47    0.58
  WS02004138WS02004139 CONDUIT    379.33     0  07:30      2.94    0.08    0.43
  WS02003067WS02003066 CONDUIT    639.29     0  02:56      1.33    0.20    0.44
  WS02001213WS02003059 CONDUIT    374.29     0  07:32      0.65    0.62    0.75
  WS02001212WS02001213 CONDUIT    375.23     0  07:31      1.17    0.58    0.44
  WS02001211WS02001212 CONDUIT    376.88     0  07:31      0.74    0.29    0.62
  WS02003072WS02003073 CONDUIT    936.33     0  03:05      1.72    2.02    0.48
  WS02003069WS02003072 CONDUIT    936.19     0  03:04      1.62    0.45    0.51
  WS02003060WS02003069 CONDUIT    935.87     0  03:04      1.86    0.37    0.46
  WS02003059WS02003060 CONDUIT    373.76     0  07:32      0.80    0.24    0.65
  HS02004901HS02004770 CONDUIT     17.71     0  03:01      0.07    0.07    0.39
  HS02004876HS02004881 CONDUIT     71.90     0  03:01      0.92    0.76    0.11
  HS02004870HS02004876 CONDUIT     58.03     0  03:01      0.63    0.04    0.13
  HS02004842HS02004848 CONDUIT     11.42     0  03:01      0.05    0.01    0.30
  HS02004837HS02004842 CONDUIT     11.94     0  03:02      0.41    0.01    0.32
  HS02004830HS02004837 CONDUIT     41.69     0  03:01      0.56    0.04    0.11
  HS02004824HS02004830 CONDUIT     41.67     0  03:01      0.58    0.05    0.10
  HS02004817HS02004824 CONDUIT     81.58     0  03:01      0.25    0.04    0.47
  HS02004770HS02004777 CONDUIT     90.21     0  03:01      0.32    0.16    0.41
  HS02004799HS02004480 CONDUIT    226.98     0  03:01      0.78    0.29    0.42
  HS02004792HS02004799 CONDUIT    206.60     0  03:01      0.88    0.13    0.33
  HS02004788HS02004792 CONDUIT    118.94     0  03:01      1.01    0.08    0.17
  HS02004785HS02004788 CONDUIT     89.52     0  03:02      0.66    0.67    0.19
  HS02004777HS02004785 CONDUIT     89.64     0  03:01      0.38    0.11    0.33
  HS02004480HS02004478 CONDUIT    269.12     0  03:01      1.20    1.13    0.32
  HS02004479HS02004480 CONDUIT     44.17     0  03:02      0.23    0.04    0.40
  HS02004862HS02004870 CONDUIT     44.23     0  03:01      0.64    0.05    0.10
  HS02004848HS02004852 CONDUIT     20.44     0  03:01      0.44    0.02    0.07
  HS02004856HS02004862 CONDUIT     30.57     0  03:01      0.47    0.03    0.09
  HS02004852HS02004856 CONDUIT     20.26     0  03:01      0.24    0.02    0.12
  HS02004802HS02004478 CONDUIT    106.59     0  03:02      0.45    0.09    0.35
  HS02004478WS02006287 CONDUIT    375.27     0  03:01      1.68    0.11    0.25
  HS02004817HS02004807 CONDUIT     82.18     0  03:01      0.19    0.05    0.62
  HS02004807HS02004802 CONDUIT    106.49     0  03:01      0.38    0.20    0.40
  YS02001759YS02001757 CONDUIT    672.08     0  02:56      0.86    0.48    1.00
  YS02001762YS02001759 CONDUIT    341.83     0  02:56      0.44    0.39    1.00
  YS02001765YS02001762 CONDUIT    342.07     0  02:56      0.44    0.32    1.00
  YS02001770YS02001767 CONDUIT    341.49     0  02:56      0.43    1.35    1.00
  YS02001774YS02001770 CONDUIT    305.02     0  03:19      0.39    0.19    1.00
  YS02001779YS02001774 CONDUIT    305.58     0  03:19      0.39    0.15    1.00
  YS02001649YS02001757 CONDUIT    944.92     0  02:50      1.20    0.57    1.00
  YS02001767YS02001765 CONDUIT    342.07     0  02:56      0.44    0.43    1.00
  YS02006561YS02001783 CONDUIT    964.14     0  03:01      2.09    0.50    1.00
  YS02001783YS02001784 CONDUIT    964.17     0  03:00      1.92    1.33    1.00
  YS02001784YS02001785 CONDUIT    965.18     0  03:01      1.92    2.25    1.00
  YS02001788YS02001790 CONDUIT    965.33     0  03:01      2.23    0.71    1.00
  YS02001790YS02001791 CONDUIT    965.53     0  03:01      2.67    1.05    1.00
  YS02001791YS02001793 CONDUIT    965.58     0  03:00      5.27    0.41    1.00
  YS02001910YS02001907 CONDUIT    431.62     0  02:54      0.55    0.24    1.00
  YS02001786YS02001788 CONDUIT    965.24     0  03:01      2.15    1.86    1.00
  YS02001915YS02001910 CONDUIT    431.76     0  02:54      0.55    0.21    1.00
  YS02001918YS02001915 CONDUIT    197.58     0  02:54      0.44    0.11    1.00
  YS02001923YS02001920 CONDUIT    194.63     0  02:54      0.68    0.09    1.00
  YS02001926YS02001923 CONDUIT    205.29     0  02:54      0.79    0.29    0.89
  YS02001929YS02001926 CONDUIT    177.01     0  02:54      0.84    0.08    0.79
  YS02001920YS02001918 CONDUIT    197.42     0  02:54      0.67    0.19    1.00
  YS02001629YS02163301 CONDUIT    209.89     0  02:50      0.27    0.26    1.00
  YS02001619YS02001622 CONDUIT    257.61     0  03:01      0.61    0.38    1.00
  YS02001622YS02001625 CONDUIT    257.36     0  03:01      0.33    0.14    1.00
  YS02001625YS02001629 CONDUIT    210.00     0  02:50      0.27    0.10    1.00
  YS02163301YS02001633 CONDUIT    209.85     0  02:50      0.27    0.20    1.00
  YS02163601YS02164001 CONDUIT    444.23     0  02:50      0.57    0.39    1.00
  YS02164001YS02001641 CONDUIT    444.11     0  02:50      0.57    0.61    1.00
  YS02001641YS02001644 CONDUIT    443.98     0  02:50      0.57    1.44    1.00
  YS02001647YS02001649 CONDUIT    674.43     0  02:50      0.86    0.36    1.00
  YS02006553YS02006556 CONDUIT    666.50     0  03:16      0.85    0.57    1.00
  YS02006556YS02006558 CONDUIT    666.60     0  03:17      0.85    0.53    1.00
  YSB6556YSB1171       CONDUIT     24.81     0  03:03      0.09    0.03    0.67
  YS02001907YS02006553 CONDUIT    666.50     0  03:17      0.74    0.78    1.00
  YS02006558YS02006561 CONDUIT    964.17     0  03:01      3.41    2.13    1.00
  YS02001633YS02163601 CONDUIT    444.14     0  02:50      0.57    0.47    1.00
  YS02001644YS02001647 CONDUIT    674.87     0  02:50      0.86    0.40    1.00
  YS02001745YS02001748 CONDUIT    429.59     0  02:42      1.48    0.17    0.94
  YS02001748YS02001751 CONDUIT    307.47     0  03:01      1.05    0.16    1.00
  YS02001751YS02001754 CONDUIT    307.26     0  03:01      0.88    0.15    1.00
  YS02001754YS02001757 CONDUIT    307.12     0  03:01      0.39    0.12    1.00
  YS02001882YS02001884 CONDUIT     20.94     0  02:36      0.09    0.02    1.00
  YS02001884YS02001887 CONDUIT     45.79     0  02:35      0.07    0.06    1.00
  YS02001890YS02001895 CONDUIT    453.79     0  03:01      0.58    0.21    1.00
  YS02001895YS02001898 CONDUIT    453.55     0  03:01      0.58    0.79    1.00
  YS02001898YS02001901 CONDUIT    453.88     0  03:01      0.58    0.29    1.00
  YS02001901YS02001904 CONDUIT    453.62     0  03:01      0.58    0.70    1.00
  YS02001904YS02001907 CONDUIT    453.68     0  03:01      0.58    0.16    1.00
  YS02001887YS02001890 CONDUIT    453.81     0  03:01      0.58    0.78    1.00
  YS02001652YS02001649 CONDUIT    371.20     0  03:01      0.50    0.18    1.00
  YS02001655YS02001652 CONDUIT    370.30     0  03:01      0.93    0.18    1.00
  YS02001658YS02001655 CONDUIT    369.73     0  03:01      1.21    0.16    1.00
  YS02001661YS02001658 CONDUIT    489.30     0  02:42      1.56    0.19    1.00
  YS02001664YS02001661 CONDUIT    693.31     0  02:55      1.58    0.22    0.72
  YSB1154YSB6556       CONDUIT     24.91     0  03:01      0.18    0.04    0.56
  YSB1174YSB1171       CONDUIT     18.78     0  03:01      0.07    0.03    0.68
  YSB1171HS02004479    CONDUIT     42.82     0  03:02      0.54    0.03    0.53
  HS02004881HS02006253 CONDUIT     79.15     0  03:01      2.19    0.02    0.29
  YS02001793JiankangQianchi CONDUIT    987.73     0  02:28     10.75    0.08    1.00
  YS02001757CaochengTiaoxuchi CONDUIT   1794.74     0  02:51      2.41    0.79    1.00
  WSF200WS02003060     CONDUIT    639.12     0  02:56      1.91    0.14    0.36
  1                    CONDUIT    938.35     0  03:06      3.27    0.33    0.39
  2                    CONDUIT    201.96     0  02:40      5.85    0.48    0.49
  3                    CONDUIT    480.41     0  04:30      9.73    0.77    0.66
  4                    CONDUIT      0.00     0  00:00      0.00    0.00    0.00
  CC-Pump-1            PUMP       200.00     0  03:20              1.00
  CC-Pump-2            PUMP       200.00     0  01:59              1.00
  JK-Pump-1            PUMP       300.00     0  00:00              1.00
  JK-Pump-2            PUMP       300.00     0  03:30              1.00
  XR-Pump-1            PUMP        95.00     0  00:00              1.00
  XR-Pump-2            PUMP        95.00     0  00:30              1.00
  XR-Pump-3            PUMP        95.00     0  00:00              1.00
  XR-Pump-4            PUMP        95.00     0  00:40              1.00
  
  
  ***************************
  Flow Classification Summary
  ***************************
  
  -------------------------------------------------------------------------------------
                      Adjusted    ---------- Fraction of Time in Flow Class ---------- 
                       /Actual         Up    Down  Sub   Sup   Up    Down  Norm  Inlet 
  Conduit               Length    Dry  Dry   Dry   Crit  Crit  Crit  Crit  Ltd   Ctrl  
  -------------------------------------------------------------------------------------
  WS02003066WSF200        1.00   0.06  0.00  0.00  0.00  0.94  0.00  0.00  0.62  0.00
  WS02006287WS02006284    1.00   0.04  0.01  0.00  0.59  0.36  0.00  0.00  0.65  0.00
  WS02006284WS02006280    1.00   0.04  0.00  0.00  0.00  0.00  0.00  0.96  0.00  0.00
  WS02006280WS02006229    1.00   0.04  0.00  0.00  0.00  0.00  0.00  0.96  0.00  0.00
  WS02006229WS02006228    1.00   0.00  0.00  0.00  0.99  0.00  0.00  0.01  0.00  0.00
  WS02006256WS02006235    1.00   0.00  0.00  0.00  1.00  0.00  0.00  0.00  0.00  0.00
  WS02006253WS02006251    1.00   0.03  0.01  0.00  0.96  0.00  0.00  0.00  0.00  0.00
  WS02006252WS02006251    1.00   0.07  0.00  0.00  0.00  0.00  0.93  0.00  0.00  0.00
  WS02006251WS02006249    1.00   0.00  0.00  0.00  1.00  0.00  0.00  0.00  0.23  0.00
  WS02006249WS02006248    1.00   0.00  0.02  0.00  0.91  0.00  0.07  0.00  0.00  0.00
  WS02006248WS02006247    1.00   0.02  0.00  0.00  0.98  0.00  0.00  0.00  0.11  0.00
  WS02006247WS02006245    1.00   0.02  0.00  0.00  0.98  0.00  0.00  0.00  0.00  0.00
  WS02006245WS02006243    1.00   0.01  0.00  0.00  0.95  0.00  0.00  0.03  0.01  0.00
  WS02006243WS02006242    1.00   0.01  0.00  0.00  0.99  0.00  0.00  0.00  0.21  0.00
  WS02006242WS02006240    1.00   0.00  0.00  0.00  1.00  0.00  0.00  0.00  0.00  0.00
  WS02006240WS02006239    1.00   0.00  0.00  0.00  0.97  0.00  0.00  0.03  0.01  0.00
  WS02006239WS02006238    1.00   0.00  0.00  0.00  1.00  0.00  0.00  0.00  0.00  0.00
  WS02006238WS02006235    1.00   0.00  0.00  0.00  1.00  0.00  0.00  0.00  0.00  0.00
  WS02006235WS02006234    1.00   0.00  0.00  0.00  0.96  0.00  0.04  0.00  0.00  0.00
  WS02006234WS02006232    1.00   0.00  0.00  0.00  1.00  0.00  0.00  0.00  0.11  0.00
  WS02006232WS02006231    1.00   0.00  0.00  0.00  0.99  0.00  0.00  0.00  0.00  0.00
  WS02006231WS02006230    1.00   0.00  0.00  0.00  0.65  0.00  0.35  0.00  0.00  0.00
  WS02006230WS02006229    1.00   0.00  0.00  0.00  0.99  0.00  0.00  0.01  0.01  0.00
  WS02006228WS02006109    1.00   0.00  0.00  0.00  1.00  0.00  0.00  0.00  0.00  0.00
  WS02006116WS02004401    1.00   0.02  0.00  0.00  0.98  0.00  0.00  0.00  0.00  0.00
  WS02006115WS02006116    1.00   0.02  0.00  0.00  0.97  0.00  0.00  0.01  0.00  0.00
  WS02006113WS02006111    1.00   0.02  0.00  0.00  0.00  0.98  0.00  0.00  0.11  0.00
  WS02006112WS02006115    1.00   0.02  0.00  0.00  0.97  0.00  0.00  0.00  0.00  0.00
  WS02006111WS02006112    1.00   0.02  0.00  0.00  0.98  0.00  0.00  0.00  0.92  0.00
  WS02006110WS02006113    1.00   0.01  0.01  0.00  0.98  0.00  0.00  0.00  0.00  0.00
  WS02006109WS02006110    1.00   0.00  0.01  0.00  0.98  0.00  0.01  0.00  0.00  0.00
  WS02004411WS02004412    1.00   0.04  0.00  0.00  0.96  0.00  0.00  0.00  0.00  0.00
  WS02004401WS02004402    1.00   0.03  0.00  0.00  0.97  0.00  0.00  0.00  0.00  0.00
  WS02004413WS02003067    1.00   0.04  0.01  0.00  0.00  0.00  0.95  0.00  0.00  0.00
  WS02004412WS02004413    1.00   0.04  0.00  0.00  0.96  0.00  0.00  0.00  0.03  0.00
  WS02004410WS02004411    1.00   0.04  0.00  0.00  0.96  0.00  0.00  0.00  0.04  0.00
  WS02004409WS02004410    1.00   0.04  0.00  0.00  0.96  0.00  0.00  0.00  0.03  0.00
  WS02004407WS02004409    1.00   0.04  0.00  0.00  0.96  0.00  0.00  0.00  0.89  0.00
  WS02004406WS02004407    1.00   0.00  0.04  0.00  0.96  0.00  0.00  0.00  0.00  0.00
  WS02004405WS02004406    1.00   0.00  0.00  0.00  1.00  0.00  0.00  0.00  0.01  0.00
  WS02004404WS02004405    1.00   0.00  0.00  0.00  1.00  0.00  0.00  0.00  0.00  0.00
  WS02004403WS02004404    1.00   0.00  0.03  0.00  0.97  0.00  0.00  0.00  0.01  0.00
  WS02004402WS02004403    1.00   0.03  0.00  0.00  0.97  0.00  0.00  0.00  0.00  0.00
  WS02004139WS02001211    1.00   0.00  0.00  0.00  1.00  0.00  0.00  0.00  0.00  0.00
  WS02004138WS02004139    1.00   0.00  0.00  0.00  0.99  0.01  0.00  0.00  1.00  0.00
  WS02003067WS02003066    1.00   0.05  0.01  0.00  0.94  0.00  0.00  0.00  0.00  0.00
  WS02001213WS02003059    1.00   0.00  0.00  0.00  0.99  0.00  0.00  0.00  0.00  0.00
  WS02001212WS02001213    1.00   0.00  0.00  0.00  0.90  0.00  0.10  0.00  0.00  0.00
  WS02001211WS02001212    1.00   0.00  0.00  0.00  1.00  0.00  0.00  0.00  0.00  0.00
  WS02003072WS02003073    1.00   0.00  0.00  0.00  0.00  0.00  0.00  1.00  0.00  0.00
  WS02003069WS02003072    1.00   0.00  0.00  0.00  0.99  0.01  0.00  0.00  0.24  0.00
  WS02003060WS02003069    1.00   0.00  0.00  0.00  0.99  0.01  0.00  0.00  0.13  0.00
  WS02003059WS02003060    1.00   0.00  0.00  0.00  1.00  0.00  0.00  0.00  0.01  0.00
  HS02004901HS02004770    1.00   0.04  0.00  0.00  0.96  0.00  0.00  0.00  0.00  0.00
  HS02004876HS02004881    1.00   0.02  0.00  0.00  0.89  0.08  0.00  0.00  0.00  0.00
  HS02004870HS02004876    1.00   0.01  0.00  0.00  0.99  0.00  0.00  0.00  0.95  0.00
  HS02004842HS02004848    1.00   0.00  0.04  0.00  0.96  0.00  0.00  0.00  0.58  0.00
  HS02004837HS02004842    1.00   0.00  0.00  0.00  0.99  0.01  0.00  0.00  0.11  0.00
  HS02004830HS02004837    1.00   0.00  0.00  0.00  1.00  0.00  0.00  0.00  0.99  0.00
  HS02004824HS02004830    1.00   0.00  0.00  0.00  1.00  0.00  0.00  0.00  0.00  0.00
  HS02004817HS02004824    1.00   0.00  0.00  0.00  1.00  0.00  0.00  0.00  1.00  0.00
  HS02004770HS02004777    1.00   0.00  0.04  0.00  0.96  0.00  0.00  0.00  0.03  0.00
  HS02004799HS02004480    1.00   0.00  0.02  0.00  0.95  0.00  0.02  0.00  0.00  0.00
  HS02004792HS02004799    1.00   0.00  0.00  0.00  0.99  0.01  0.00  0.00  0.98  0.00
  HS02004788HS02004792    1.00   0.00  0.00  0.00  0.99  0.01  0.00  0.00  0.98  0.00
  HS02004785HS02004788    1.00   0.00  0.00  0.00  1.00  0.00  0.00  0.00  0.00  0.00
  HS02004777HS02004785    1.00   0.00  0.00  0.00  1.00  0.00  0.00  0.00  0.14  0.00
  HS02004480HS02004478    1.00   0.04  0.00  0.00  0.65  0.00  0.00  0.30  0.00  0.00
  HS02004479HS02004480    1.00   0.03  0.00  0.00  0.97  0.00  0.00  0.00  0.13  0.00
  HS02004862HS02004870    1.00   0.00  0.00  0.00  1.00  0.00  0.00  0.00  0.05  0.00
  HS02004848HS02004852    1.00   0.04  0.00  0.00  0.96  0.00  0.00  0.00  0.61  0.00
  HS02004856HS02004862    1.00   0.00  0.05  0.00  0.95  0.00  0.00  0.00  0.80  0.00
  HS02004852HS02004856    1.00   0.04  0.00  0.00  0.96  0.00  0.00  0.00  0.85  0.00
  HS02004802HS02004478    1.00   0.04  0.00  0.00  0.96  0.00  0.00  0.00  0.03  0.00
  HS02004478WS02006287    1.00   0.05  0.00  0.00  0.72  0.23  0.00  0.00  0.66  0.00
  HS02004817HS02004807    1.00   0.00  0.04  0.00  0.96  0.00  0.00  0.00  0.01  0.00
  HS02004807HS02004802    1.00   0.04  0.00  0.00  0.95  0.00  0.00  0.00  0.00  0.00
  YS02001759YS02001757    1.00   0.00  0.00  0.00  1.00  0.00  0.00  0.00  0.16  0.00
  YS02001762YS02001759    1.00   0.00  0.00  0.00  1.00  0.00  0.00  0.00  0.04  0.00
  YS02001765YS02001762    1.00   0.00  0.00  0.00  1.00  0.00  0.00  0.00  0.16  0.00
  YS02001770YS02001767    1.00   0.00  0.00  0.00  1.00  0.00  0.00  0.00  0.00  0.00
  YS02001774YS02001770    1.00   0.00  0.04  0.00  0.96  0.00  0.00  0.00  0.04  0.00
  YS02001779YS02001774    1.00   0.00  0.00  0.00  1.00  0.00  0.00  0.00  0.21  0.00
  YS02001649YS02001757    1.00   0.00  0.00  0.00  1.00  0.00  0.00  0.00  0.17  0.00
  YS02001767YS02001765    1.00   0.00  0.00  0.00  1.00  0.00  0.00  0.00  0.00  0.00
  YS02006561YS02001783    1.00   0.06  0.00  0.00  0.41  0.53  0.00  0.00  0.55  0.00
  YS02001783YS02001784    1.00   0.00  0.06  0.00  0.94  0.00  0.00  0.00  0.01  0.00
  YS02001784YS02001785    1.00   0.00  0.00  0.00  1.00  0.00  0.00  0.00  0.20  0.00
  YS02001788YS02001790    1.00   0.00  0.00  0.00  0.54  0.46  0.00  0.00  0.50  0.00
  YS02001790YS02001791    1.00   0.00  0.00  0.00  0.51  0.49  0.00  0.00  0.36  0.00
  YS02001791YS02001793    1.00   0.00  0.00  0.00  0.52  0.48  0.00  0.00  0.02  0.00
  YS02001910YS02001907    1.00   0.00  0.00  0.00  0.97  0.00  0.00  0.02  0.13  0.00
  YS02001786YS02001788    1.00   0.00  0.00  0.00  0.50  0.50  0.00  0.00  0.00  0.00
  YS02001915YS02001910    1.00   0.00  0.00  0.00  0.99  0.01  0.00  0.00  0.18  0.00
  YS02001918YS02001915    1.00   0.00  0.01  0.00  0.98  0.01  0.00  0.00  0.58  0.00
  YS02001923YS02001920    1.00   0.00  0.00  0.00  1.00  0.00  0.00  0.00  0.85  0.00
  YS02001926YS02001923    1.00   0.00  0.03  0.00  0.14  0.00  0.83  0.00  0.00  0.00
  YS02001929YS02001926    1.00   0.00  0.04  0.00  0.96  0.00  0.00  0.00  0.78  0.00
  YS02001920YS02001918    1.00   0.00  0.01  0.00  0.99  0.00  0.00  0.00  0.00  0.00
  YS02001629YS02163301    1.00   0.05  0.00  0.00  0.95  0.00  0.00  0.00  0.00  0.00
  YS02001619YS02001622    1.00   0.04  0.00  0.00  0.96  0.00  0.00  0.00  0.00  0.00
  YS02001622YS02001625    1.00   0.04  0.00  0.00  0.96  0.00  0.00  0.00  0.07  0.00
  YS02001625YS02001629    1.00   0.04  0.01  0.00  0.93  0.00  0.01  0.00  0.00  0.00
  YS02163301YS02001633    1.00   0.00  0.05  0.00  0.95  0.00  0.00  0.00  0.00  0.00
  YS02163601YS02164001    1.00   0.00  0.03  0.00  0.97  0.00  0.00  0.00  0.00  0.00
  YS02164001YS02001641    1.00   0.01  0.03  0.00  0.97  0.00  0.00  0.00  0.06  0.00
  YS02001641YS02001644    1.00   0.00  0.01  0.00  0.99  0.00  0.00  0.00  0.00  0.00
  YS02001647YS02001649    1.00   0.00  0.05  0.00  0.95  0.00  0.00  0.00  0.01  0.00
  YS02006553YS02006556    1.00   0.01  0.00  0.00  0.99  0.00  0.00  0.00  0.03  0.00
  YS02006556YS02006558    1.00   0.00  0.00  0.00  1.00  0.00  0.00  0.00  0.00  0.00
  YSB6556YSB1171          1.00   0.03  0.01  0.00  0.96  0.00  0.00  0.00  0.00  0.00
  YS02001907YS02006553    1.00   0.00  0.02  0.00  0.98  0.00  0.00  0.00  0.00  0.00
  YS02006558YS02006561    1.00   0.06  0.00  0.00  0.18  0.76  0.00  0.00  0.49  0.00
  YS02001633YS02163601    1.00   0.00  0.01  0.00  0.99  0.00  0.00  0.00  0.16  0.00
  YS02001644YS02001647    1.00   0.00  0.05  0.00  0.95  0.00  0.00  0.00  0.00  0.00
  YS02001745YS02001748    1.00   0.00  0.00  0.00  0.89  0.01  0.00  0.10  0.05  0.00
  YS02001748YS02001751    1.00   0.00  0.00  0.00  0.98  0.02  0.00  0.00  0.15  0.00
  YS02001751YS02001754    1.00   0.00  0.00  0.00  0.94  0.00  0.00  0.06  0.02  0.00
  YS02001754YS02001757    1.00   0.00  0.00  0.00  0.99  0.01  0.00  0.00  0.20  0.00
  YS02001882YS02001884    1.00   0.05  0.00  0.00  0.95  0.00  0.00  0.00  0.00  0.00
  YS02001884YS02001887    1.00   0.03  0.01  0.00  0.96  0.00  0.00  0.00  0.00  0.00
  YS02001890YS02001895    1.00   0.00  0.05  0.00  0.95  0.00  0.00  0.00  0.00  0.00
  YS02001895YS02001898    1.00   0.05  0.00  0.00  0.94  0.00  0.01  0.00  0.00  0.00
  YS02001898YS02001901    1.00   0.05  0.00  0.00  0.95  0.00  0.00  0.00  0.02  0.00
  YS02001901YS02001904    1.00   0.05  0.00  0.00  0.95  0.00  0.00  0.00  0.00  0.00
  YS02001904YS02001907    1.00   0.00  0.05  0.00  0.95  0.00  0.00  0.00  0.00  0.00
  YS02001887YS02001890    1.00   0.00  0.00  0.00  0.97  0.00  0.02  0.00  0.00  0.00
  YS02001652YS02001649    1.00   0.00  0.00  0.00  1.00  0.00  0.00  0.00  0.18  0.00
  YS02001655YS02001652    1.00   0.00  0.00  0.00  0.94  0.00  0.00  0.06  0.02  0.00
  YS02001658YS02001655    1.00   0.00  0.05  0.00  0.93  0.02  0.00  0.00  0.11  0.00
  YS02001661YS02001658    1.00   0.05  0.00  0.00  0.89  0.06  0.00  0.00  0.06  0.00
  YS02001664YS02001661    1.00   0.04  0.00  0.00  0.86  0.09  0.00  0.00  0.22  0.00
  YSB1154YSB6556          1.00   0.04  0.00  0.00  0.96  0.00  0.00  0.00  0.02  0.00
  YSB1174YSB1171          1.00   0.03  0.01  0.00  0.96  0.00  0.00  0.00  0.00  0.00
  YSB1171HS02004479       1.00   0.03  0.00  0.00  0.97  0.00  0.00  0.00  0.11  0.00
  HS02004881HS02006253    1.00   0.03  0.00  0.00  0.80  0.02  0.00  0.14  0.65  0.00
  YS02001793JiankangQianchi    1.00   0.00  0.00  0.00  0.84  0.16  0.00  0.00  0.28  0.00
  YS02001757CaochengTiaoxuchi    1.00   0.00  0.07  0.00  0.92  0.01  0.00  0.00  0.00  0.00
  WSF200WS02003060        1.00   0.00  0.06  0.00  0.52  0.41  0.00  0.00  0.16  0.00
  1                       1.00   0.00  0.00  0.00  0.00  1.00  0.00  0.00  0.37  0.00
  2                       1.00   0.62  0.00  0.00  0.00  0.38  0.00  0.00  0.08  0.00
  3                       1.00   0.21  0.00  0.00  0.00  0.79  0.00  0.00  0.27  0.00
  4                       1.00   1.00  0.00  0.00  0.00  0.00  0.00  0.00  0.00  0.00
  
  
  *************************
  Conduit Surcharge Summary
  *************************
  
  ----------------------------------------------------------------------------
                                                           Hours        Hours 
                         --------- Hours Full --------   Above Full   Capacity
  Conduit                Both Ends  Upstream  Dnstream   Normal Flow   Limited
  ----------------------------------------------------------------------------
  WS02006229WS02006228        2.20      2.44      2.20      4.79         2.20
  WS02006256WS02006235        6.09      6.09      7.04      2.48         0.01
  WS02006253WS02006251        0.01      0.01      0.04      0.01         0.01
  WS02006252WS02006251        1.14      1.14      2.00      1.78         0.01
  WS02006251WS02006249        0.01      0.01      0.01      1.26         0.01
  WS02006249WS02006248        0.01      0.01      0.01      4.78         0.01
  WS02006248WS02006247        0.01      0.01      0.01      0.01         0.01
  WS02006247WS02006245        0.01      0.05      0.01      5.13         0.01
  WS02006245WS02006243        0.03      0.03      0.18      0.07         0.01
  WS02006243WS02006242        0.22      0.22      1.39      0.01         0.01
  WS02006242WS02006240        0.58      0.58      1.82      1.93         0.01
  WS02006240WS02006239        0.70      0.70      0.86      0.32         0.01
  WS02006239WS02006238        1.72      1.72      1.90      0.37         0.07
  WS02006238WS02006235        1.76      1.76      2.18      0.01         0.01
  WS02006235WS02006234        0.80      0.80      1.56      6.11         0.01
  WS02006234WS02006232        0.97      0.97      2.32      0.01         0.01
  WS02006232WS02006231        0.69      0.69      2.32      0.01         0.01
  WS02006231WS02006230        0.48      0.48      0.75      6.12         0.01
  WS02006230WS02006229        3.06      4.42      3.06      6.23         3.06
  WS02006228WS02006109        2.33      2.76      2.33      5.67         2.33
  WS02006112WS02006115        0.01      0.01      1.03      0.01         0.01
  WS02006111WS02006112        0.01      0.01      4.93      0.01         0.01
  WS02006110WS02006113        0.01      0.01      2.61      0.01         0.01
  WS02006109WS02006110        0.97      0.97      2.76      0.97         0.01
  WS02004406WS02004407        0.01      0.01      0.37      0.01         0.01
  WS02004405WS02004406        0.37      0.48      0.37      1.00         0.37
  WS02004404WS02004405        0.48      0.60      0.48      6.00         0.48
  WS02004403WS02004404        0.01      0.01      0.60      0.01         0.01
  WS02003072WS02003073        0.01      0.01      0.01      5.40         0.01
  HS02004480HS02004478        0.01      0.01      0.01      0.25         0.01
  YS02001759YS02001757        5.66      5.66      5.74      0.01         0.01
  YS02001762YS02001759        5.64      5.64      5.66      0.01         0.01
  YS02001765YS02001762        5.61      5.61      5.64      0.01         0.01
  YS02001770YS02001767        5.58      5.58      5.58      0.32         0.85
  YS02001774YS02001770        5.57      5.57      5.63      0.01         0.01
  YS02001779YS02001774        5.40      5.40      5.63      0.01         0.01
  YS02001649YS02001757        5.64      5.64      5.74      0.01         0.01
  YS02001767YS02001765        5.58      5.58      5.61      0.01         0.01
  YS02006561YS02001783        0.67      0.67      1.36      0.01         0.01
  YS02001783YS02001784        1.36      1.36      1.41      1.06         1.04
  YS02001784YS02001785        1.35      1.41      1.35      2.07         1.35
  YS02001788YS02001790        1.35      1.35      2.63      0.01         0.01
  YS02001790YS02001791        2.63      2.63      2.81      0.49         0.49
  YS02001791YS02001793        2.81      2.81      3.17      0.01         0.01
  YS02001910YS02001907        1.01      1.01      1.48      0.01         0.01
  YS02001786YS02001788        1.34      1.35      1.35      1.68         1.34
  YS02001915YS02001910        0.79      0.79      1.01      0.01         0.01
  YS02001918YS02001915        0.53      0.53      0.79      0.01         0.01
  YS02001923YS02001920        0.31      0.31      0.57      0.01         0.01
  YS02001920YS02001918        0.53      0.53      0.57      0.01         0.01
  YS02001629YS02163301        5.56      5.56      5.58      0.01         0.01
  YS02001619YS02001622        5.23      5.23      5.25      0.01         0.01
  YS02001622YS02001625        5.25      5.25      5.43      0.01         0.01
  YS02001625YS02001629        5.24      5.24      5.43      0.01         0.01
  YS02163301YS02001633        5.58      5.58      5.61      0.01         0.01
  YS02163601YS02164001        5.61      5.61      5.64      0.01         0.01
  YS02164001YS02001641        5.61      5.61      5.62      0.01         0.02
  YS02001641YS02001644        5.62      5.62      5.62      1.22         1.41
  YS02001647YS02001649        5.42      5.42      5.64      0.01         0.01
  YS02006553YS02006556        1.24      1.24      1.55      0.01         0.01
  YS02006556YS02006558        1.35      1.35      1.62      0.01         0.01
  YS02001907YS02006553        2.09      2.09      2.30      0.01         0.01
  YS02006558YS02006561        0.90      1.20      0.90      1.94         0.90
  YS02001633YS02163601        5.60      5.60      5.64      0.01         0.01
  YS02001644YS02001647        5.42      5.42      5.62      0.01         0.01
  YS02001745YS02001748        0.01      0.01      5.04      0.01         0.01
  YS02001748YS02001751        5.09      5.09      5.21      0.01         0.01
  YS02001751YS02001754        5.21      5.21      5.40      0.01         0.01
  YS02001754YS02001757        5.42      5.42      5.74      0.01         0.01
  YS02001882YS02001884        0.80      0.80      0.84      0.01         0.01
  YS02001884YS02001887        0.90      0.90      0.93      0.01         0.01
  YS02001890YS02001895        0.77      0.77      1.04      0.01         0.01
  YS02001895YS02001898        0.76      0.76      0.77      0.01         0.01
  YS02001898YS02001901        0.78      0.78      0.89      0.01         0.01
  YS02001901YS02001904        0.87      0.87      0.89      0.01         0.01
  YS02001904YS02001907        0.87      0.87      1.57      0.01         0.01
  YS02001887YS02001890        0.96      0.96      0.99      0.01         0.01
  YS02001652YS02001649        5.43      5.43      5.64      0.01         0.01
  YS02001655YS02001652        5.26      5.26      5.41      0.01         0.01
  YS02001658YS02001655        5.07      5.07      5.26      0.01         0.01
  YS02001661YS02001658        0.18      0.18      5.07      0.01         0.01
  YS02001664YS02001661        0.01      0.01      1.05      0.01         0.01
  YS02001793JiankangQianchi        3.10      3.10      4.87      0.01         0.01
  YS02001757CaochengTiaoxuchi        4.88      4.88      5.74      0.01         0.01
  
  
  ***************
  Pumping Summary
  ***************
  
  ---------------------------------------------------------------------------------------------------------
                                                  Min       Avg       Max     Total     Power    % Time Off
                        Percent   Number of      Flow      Flow      Flow    Volume     Usage    Pump Curve
  Pump                 Utilized   Start-Ups       LPS       LPS       LPS  10^6 ltr     Kw-hr    Low   High
  ---------------------------------------------------------------------------------------------------------
  CC-Pump-1               59.57           8      0.00    138.63    200.00     2.340      3.10    0.0    7.3
  CC-Pump-2               65.17           5      0.00    136.09    200.00     2.501      3.95    0.0   12.0
  JK-Pump-1               51.06           7      0.00    180.69    300.00     2.193     19.45    0.0    0.0
  JK-Pump-2               68.08           6      0.00    187.01    300.00     2.651     23.22    0.0    0.0
  XR-Pump-1               70.21           6      0.00     67.07     95.00     1.340      8.11    0.0    0.0
  XR-Pump-2               82.95           6      0.00     73.15     95.00     1.681     11.06    0.0    0.0
  XR-Pump-3               82.96           9      0.00     69.23     95.00     1.653     11.35    0.0    0.0
  XR-Pump-4               65.94           9      0.00     65.34     95.00     1.168      7.85    0.0    0.0
  

  Analysis begun on:  Thu Jan  6 17:46:44 2022
  Analysis ended on:  Thu Jan  6 17:46:46 2022
  Total elapsed time: 00:00:02