
  EPA STORM WATER MANAGEMENT MODEL - VERSION 5.1 (Build 5.3.0.dev0)
  --------------------------------------------------------------

  WARNING 04: minimum elevation drop used for Conduit WS02004404WS02004405
  WARNING 03: negative offset ignored for Link YS02001904YS02001907
  
  *********************************************************
  NOTE: The summary statistics displayed in this report are
  based on results found at every computational time step,  
  not just on results from each reporting time step.
  *********************************************************
  
  ****************
  Analysis Options
  ****************
  Flow Units ............... LPS
  Process Models:
    Rainfall/Runoff ........ YES
    RDII ................... NO
    Snowmelt ............... NO
    Groundwater ............ NO
    Flow Routing ........... YES
    Ponding Allowed ........ NO
    Water Quality .......... NO
  Infiltration Method ...... HORTON
  Flow Routing Method ...... DYNWAVE
  Surcharge Method ......... EXTRAN
  Starting Date ............ 08/28/2015 08:00:00
  Ending Date .............. 08/28/2015 15:50:00
  Antecedent Dry Days ...... 8.0
  Report Time Step ......... 00:01:00
  Wet Time Step ............ 00:01:00
  Dry Time Step ............ 00:01:00
  Routing Time Step ........ 5.00 sec
  Variable Time Step ....... YES
  Maximum Trials ........... 8
  Number of Threads ........ 4
  Head Tolerance ........... 0.001500 m
  
  
  **************************        Volume         Depth
  Runoff Quantity Continuity     hectare-m            mm
  **************************     ---------       -------
  Total Precipitation ......         6.144        13.452
  Evaporation Loss .........         0.000         0.000
  Infiltration Loss ........         1.572         3.442
  Surface Runoff ...........         3.480         7.619
  Final Storage ............         1.093         2.393
  Continuity Error (%) .....        -0.016
  
  
  **************************        Volume        Volume
  Flow Routing Continuity        hectare-m      10^6 ltr
  **************************     ---------     ---------
  Dry Weather Inflow .......         0.616         6.165
  Wet Weather Inflow .......         3.479        34.789
  Groundwater Inflow .......         0.000         0.000
  RDII Inflow ..............         0.000         0.000
  External Inflow ..........         0.102         1.024
  External Outflow .........         1.390        13.905
  Flooding Loss ............         2.239        22.395
  Evaporation Loss .........         0.000         0.000
  Exfiltration Loss ........         0.000         0.000
  Initial Stored Volume ....         0.076         0.761
  Final Stored Volume ......         0.648         6.476
  Continuity Error (%) .....        -0.090
  
  
  *************************
  Highest Continuity Errors
  *************************
  Node HS02004842 (15.27%)
  Node YS02001884 (12.00%)
  Node YSB1171 (2.79%)
  Node HS02004817 (2.78%)
  Node HS02004901 (2.06%)
  
  
  ***************************
  Time-Step Critical Elements
  ***************************
  Link WS02006252WS02006251 (69.02%)
  Link 3 (23.42%)
  Link WS02006280WS02006229 (2.02%)
  
  
  ********************************
  Highest Flow Instability Indexes
  ********************************
  Link YS02163601YS02164001 (43)
  Link YS02163301YS02001633 (43)
  Link YS02001629YS02163301 (41)
  Link YS02001619YS02001622 (40)
  Link YS02164001YS02001641 (39)
  
  
  *************************
  Routing Time Step Summary
  *************************
  Minimum Time Step           :     0.50 sec
  Average Time Step           :     0.85 sec
  Maximum Time Step           :     5.00 sec
  Percent in Steady State     :    -0.00
  Average Iterations per Step :     4.50
  Percent Not Converging      :    19.26
  
  
  ***************************
  Subcatchment Runoff Summary
  ***************************
  
  ------------------------------------------------------------------------------------------------------------------------------
                            Total      Total      Total      Total     Imperv       Perv      Total       Total     Peak  Runoff
                           Precip      Runon       Evap      Infil     Runoff     Runoff     Runoff      Runoff   Runoff   Coeff
  Subcatchment                 mm         mm         mm         mm         mm         mm         mm    10^6 ltr      LPS
  ------------------------------------------------------------------------------------------------------------------------------
  sub0                      13.45       0.00       0.00       0.89      11.25       0.05      11.30        0.01     3.67   0.840
  sub1                      13.45       0.00       0.00       1.45      10.71       0.03      10.74        0.07    24.31   0.799
  sub2                      13.45       0.00       0.00       4.95       7.56       0.02       7.58        0.07    22.93   0.564
  sub3                      13.45       0.00       0.00       4.96       7.52       0.02       7.54        0.17    51.30   0.560
  sub4                      13.45       0.00       0.00       1.46      10.54       0.02      10.56        0.22    61.94   0.785
  sub5                      13.45       0.00       0.00       0.91      11.19       0.03      11.22        0.13    43.21   0.834
  sub7                      13.45       0.00       0.00       1.17      10.98       0.04      11.03        0.04    13.69   0.820
  sub8                      13.45       0.00       0.00       1.17      10.97       0.04      11.01        0.07    25.15   0.819
  sub9                      13.45       0.00       0.00       1.17      10.97       0.04      11.01        0.05    18.81   0.818
  sub10                     13.45       0.00       0.00       1.04      11.08       0.03      11.11        0.12    42.29   0.826
  sub11                     13.45       0.00       0.00       1.04      11.10       0.04      11.14        0.13    46.68   0.828
  sub12                     13.45       0.00       0.00       1.69      10.51       0.06      10.58        0.09    35.94   0.786
  sub14                     13.45       0.00       0.00       1.17      10.97       0.04      11.01        0.10    37.02   0.818
  sub15                     13.45       0.00       0.00       4.00       8.43       0.04       8.47        0.15    51.03   0.630
  sub16                     13.45       0.00       0.00       4.38       8.09       0.06       8.15        0.09    32.58   0.606
  sub17                     13.45       0.00       0.00       4.25       8.21       0.06       8.27        0.07    26.73   0.615
  sub22                     13.45       0.00       0.00       5.74       6.88       0.04       6.92        0.44   159.06   0.514
  sub23                     13.45       0.00       0.00       4.93       7.60       0.05       7.65        0.36   133.95   0.569
  sub60                     13.45       0.00       0.00       1.61       8.73       0.00       8.74        2.65   387.96   0.649
  sub61                     13.45       0.00       0.00       2.28       8.88       0.00       8.88        2.74   483.52   0.660
  sub62                     13.45       0.00       0.00       1.07       9.65       0.00       9.66        2.97   496.42   0.718
  sub63                     13.45       0.00       0.00       3.90       7.77       0.00       7.77        2.35   446.68   0.578
  sub64                     13.45       0.00       0.00       2.01       8.38       0.00       8.38        2.55   368.35   0.623
  sub65                     13.45       0.00       0.00       1.75       8.52       0.00       8.52        2.62   373.60   0.634
  sub66                     13.45       0.00       0.00       3.90       7.19       0.00       7.19        2.21   337.96   0.535
  sub67                     13.45       0.00       0.00       1.07      10.19       0.01      10.19        3.15   622.58   0.758
  sub68                     13.45       0.00       0.00       1.88       9.34       0.01       9.34        2.87   531.38   0.694
  sub69                     13.45       0.00       0.00       2.01       9.68       0.01       9.69        2.26   503.32   0.720
  sub70                     13.45       9.89       0.00       7.67      12.93       0.26      13.20        3.02   423.72   0.565
  sub71                     13.45       0.00       0.00       1.07       9.40       0.00       9.40        2.22   347.35   0.699
  sub72                     13.45       0.00       0.00       0.94       7.49       0.00       7.50        1.53   163.23   0.557
  sub73                     13.45      12.84       0.00       8.67      14.26       0.27      14.53        3.41   375.92   0.552
  sub74                     13.45       0.00       0.00      10.09       2.88       0.00       2.89        1.15   273.25   0.215
  
  
  ******************
  Node Depth Summary
  ******************
  
  ---------------------------------------------------------------------------------
                                 Average  Maximum  Maximum  Time of Max    Reported
                                   Depth    Depth      HGL   Occurrence   Max Depth
  Node                 Type       Meters   Meters   Meters  days hr:min      Meters
  ---------------------------------------------------------------------------------
  WS02001211           JUNCTION     0.44     0.68     5.52     0  00:10        0.68
  WS02001212           JUNCTION     0.21     0.40     5.46     0  00:11        0.40
  WS02001213           JUNCTION     0.50     0.64     5.40     0  03:07        0.64
  WS02003069           JUNCTION     0.36     0.53     5.11     0  03:07        0.53
  WS02003072           JUNCTION     0.43     0.59     4.96     0  03:07        0.59
  WS02003073           JUNCTION     0.25     0.36     4.42     0  03:08        0.36
  WS02003060           JUNCTION     0.32     0.47     5.40     0  03:06        0.47
  WS02003066           JUNCTION     0.25     0.35     5.91     0  03:05        0.35
  WS02003059           JUNCTION     0.57     0.71     5.40     0  03:06        0.71
  WS02003067           JUNCTION     0.60     0.78     6.10     0  03:05        0.78
  WS02004401           JUNCTION     0.71     1.09     7.09     0  03:03        1.09
  WS02004402           JUNCTION     0.74     1.10     7.06     0  03:03        1.09
  WS02004403           JUNCTION     0.76     1.09     7.02     0  03:03        1.09
  WS02004404           JUNCTION     0.84     1.14     6.99     0  03:03        1.14
  WS02004406           JUNCTION     0.84     1.09     6.92     0  03:03        1.09
  WS02004409           JUNCTION     0.53     0.84     6.61     0  03:04        0.84
  WS02004410           JUNCTION     0.55     0.84     6.56     0  03:04        0.84
  WS02004411           JUNCTION     0.56     0.83     6.51     0  03:04        0.83
  WS02004412           JUNCTION     0.57     0.82     6.46     0  03:05        0.82
  WS02004413           JUNCTION     0.73     0.96     6.43     0  03:05        0.96
  WS02004405           JUNCTION     0.83     1.12     6.97     0  03:03        1.12
  WS02006109           JUNCTION     0.80     1.24     7.86     0  03:02        1.22
  WS02006110           JUNCTION     0.78     1.09     7.68     0  03:02        1.09
  WS02006111           JUNCTION     0.24     0.57     7.28     0  03:03        0.57
  WS02006112           JUNCTION     0.89     1.36     7.25     0  03:03        1.35
  WS02006113           JUNCTION     0.36     0.59     7.48     0  03:03        0.59
  WS02006115           JUNCTION     0.61     1.04     7.18     0  03:03        1.04
  WS02006116           JUNCTION     0.69     1.10     7.14     0  03:03        1.10
  WS02006230           JUNCTION     0.78     1.35     8.09     0  03:02        1.34
  WS02006231           JUNCTION     0.52     0.98     8.11     0  03:02        0.97
  WS02006232           JUNCTION     0.66     1.08     8.11     0  03:02        1.06
  WS02006234           JUNCTION     0.58     0.97     8.12     0  03:02        0.95
  WS02006235           JUNCTION     0.61     0.97     8.13     0  03:03        0.95
  WS02006238           JUNCTION     0.63     0.99     8.14     0  03:02        0.98
  WS02006240           JUNCTION     0.52     0.86     8.15     0  03:02        0.86
  WS02006242           JUNCTION     0.57     0.90     8.17     0  03:02        0.90
  WS02006243           JUNCTION     0.45     0.77     8.19     0  03:02        0.76
  WS02006245           JUNCTION     0.43     0.71     8.20     0  03:02        0.71
  WS02006247           JUNCTION     0.44     0.71     8.21     0  03:02        0.71
  WS02006248           JUNCTION     0.38     0.63     8.22     0  03:02        0.63
  WS02006249           JUNCTION     0.42     0.63     8.22     0  03:03        0.63
  WS02006239           JUNCTION     0.58     0.94     8.15     0  03:02        0.93
  WS02006251           JUNCTION     0.40     0.61     8.28     0  03:02        0.61
  WS02006252           JUNCTION     0.33     0.35     8.59     0  02:06        0.35
  WS02006253           JUNCTION     0.43     0.64     8.29     0  03:02        0.64
  WS02006256           JUNCTION     1.07     2.35     9.28     0  00:00        1.19
  WS02004138           JUNCTION     0.02     0.17     7.42     0  00:00        0.17
  WS02004407           JUNCTION     0.24     0.36     6.67     0  03:03        0.36
  WS02006228           JUNCTION     0.81     1.35     8.00     0  03:02        1.34
  WS02006229           JUNCTION     0.79     1.39     8.08     0  03:02        1.38
  WS02006280           JUNCTION     0.08     0.24     8.52     0  03:02        0.24
  WS02006284           JUNCTION     0.38     0.63     9.02     0  03:02        0.62
  WS02006287           JUNCTION     0.11     0.37     9.32     0  03:02        0.37
  WSF200               JUNCTION     0.23     0.36     5.59     0  03:05        0.36
  HS02004901           JUNCTION     0.13     0.35    10.17     0  03:01        0.35
  HS02004881           JUNCTION     0.01     0.05     9.08     0  03:01        0.05
  HS02004876           JUNCTION     0.05     0.15     9.18     0  03:01        0.15
  HS02004870           JUNCTION     0.02     0.09     9.37     0  03:01        0.09
  HS02004862           JUNCTION     0.02     0.10     9.49     0  03:01        0.10
  HS02004856           JUNCTION     0.08     0.15     9.57     0  03:01        0.15
  HS02004852           JUNCTION     0.01     0.07     9.58     0  03:02        0.07
  HS02004848           JUNCTION     0.01     0.06     9.67     0  03:01        0.06
  HS02004842           JUNCTION     0.33     0.40     9.67     0  03:01        0.40
  HS02004837           JUNCTION     0.03     0.09     9.67     0  03:01        0.09
  HS02004830           JUNCTION     0.04     0.10     9.57     0  03:01        0.10
  HS02004824           JUNCTION     0.03     0.11     9.51     0  03:02        0.11
  HS02004817           JUNCTION     0.45     0.67     9.52     0  03:02        0.67
  HS02004807           JUNCTION     0.14     0.34     9.51     0  03:02        0.34
  HS02004802           JUNCTION     0.17     0.38     9.50     0  03:02        0.38
  HS02004799           JUNCTION     0.13     0.43     9.65     0  03:01        0.43
  HS02004792           JUNCTION     0.04     0.20     9.72     0  03:01        0.19
  HS02004788           JUNCTION     0.03     0.14    10.04     0  03:02        0.14
  HS02004785           JUNCTION     0.05     0.23    10.13     0  03:02        0.23
  HS02004777           JUNCTION     0.16     0.37    10.17     0  03:01        0.37
  HS02004770           JUNCTION     0.13     0.34    10.17     0  03:01        0.34
  HS02004480           JUNCTION     0.09     0.35     9.59     0  03:01        0.35
  HS02004479           JUNCTION     0.13     0.39     9.60     0  03:01        0.39
  HS02004478           JUNCTION     0.07     0.26     9.48     0  03:01        0.26
  YS02001745           JUNCTION     0.70     0.89     8.40     0  03:26        0.89
  YS02001748           JUNCTION     1.09     2.27     9.35     0  02:46        1.32
  YS02001751           JUNCTION     1.28     2.20     9.08     0  02:46        1.53
  YS02001754           JUNCTION     1.53     2.16     8.77     0  02:47        1.81
  YS02001762           JUNCTION     1.73     2.09     8.49     0  02:47        2.03
  YS02001765           JUNCTION     1.68     2.04     8.49     0  02:47        1.98
  YS02001767           JUNCTION     1.65     1.96     8.45     0  02:47        1.93
  YS02001770           JUNCTION     1.64     1.95     8.44     0  02:47        1.91
  YS02001774           JUNCTION     1.71     2.01     8.44     0  02:47        1.97
  YS02001779           JUNCTION     1.46     1.68     8.37     0  02:44        1.68
  YS02001882           JUNCTION     0.59     1.65     8.37     0  02:50        1.62
  YS02001884           JUNCTION     0.68     1.74     8.36     0  02:50        1.73
  YS02001759           JUNCTION     1.76     2.12     8.48     0  02:47        2.06
  YS02001887           JUNCTION     0.76     1.81     8.35     0  03:00        1.80
  YS02001890           JUNCTION     0.79     1.81     8.32     0  02:50        1.81
  YS02001898           JUNCTION     0.56     1.57     8.30     0  02:51        1.55
  YS02001901           JUNCTION     0.68     1.68     8.29     0  02:51        1.67
  YS02001904           JUNCTION     0.65     1.64     8.27     0  02:51        1.63
  YS02001907           JUNCTION     0.98     1.96     8.25     0  02:51        1.96
  YS02001910           JUNCTION     0.77     1.79     8.30     0  02:52        1.77
  YS02001915           JUNCTION     0.57     1.64     8.36     0  02:50        1.59
  YS02001918           JUNCTION     0.31     1.41     8.47     0  02:50        1.27
  YS02001619           JUNCTION     1.24     1.61     8.54     0  02:42        1.48
  YS02001629           JUNCTION     1.60     1.85     8.40     0  02:43        1.84
  YS02001641           JUNCTION     1.70     2.00     8.43     0  02:46        1.93
  YS02001644           JUNCTION     1.70     1.92     8.35     0  02:46        1.92
  YS02001652           JUNCTION     1.54     2.16     8.76     0  02:59        1.92
  YS02001655           JUNCTION     1.31     2.20     9.05     0  02:56        1.74
  YS02001920           JUNCTION     0.41     1.41     8.42     0  02:52        1.34
  YS02001923           JUNCTION     0.25     1.18     8.44     0  02:52        1.11
  YS02001926           JUNCTION     0.29     0.99     8.43     0  02:52        0.95
  YS02001929           JUNCTION     0.17     0.76     8.45     0  02:52        0.74
  YS02001658           JUNCTION     1.04     2.30     9.44     0  02:56        1.53
  YS02001661           JUNCTION     0.81     2.46     9.86     0  02:56        1.55
  YS02001664           JUNCTION     0.36     0.57     8.49     0  03:59        0.56
  YS02001622           JUNCTION     1.27     1.62     8.52     0  02:42        1.49
  YS02001633           JUNCTION     1.69     2.01     8.46     0  02:46        1.94
  YS02001649           JUNCTION     1.74     2.05     8.44     0  02:46        2.05
  YS02001757           JUNCTION     1.86     2.21     8.47     0  02:46        2.16
  YS02001895           JUNCTION     0.55     1.57     8.31     0  02:51        1.56
  YS02001625           JUNCTION     1.55     1.78     8.38     0  02:42        1.78
  YS02163301           JUNCTION     1.63     1.94     8.45     0  02:46        1.88
  YS02163601           JUNCTION     1.74     2.08     8.48     0  02:46        1.98
  YS02164001           JUNCTION     1.68     2.02     8.48     0  02:46        1.91
  YS02001647           JUNCTION     1.53     1.81     8.42     0  02:46        1.80
  YSB1154              JUNCTION     0.27     0.54     9.60     0  03:01        0.54
  YSB6556              JUNCTION     0.16     0.43     9.60     0  03:02        0.43
  YSB1174              JUNCTION     0.22     0.49     9.60     0  03:01        0.49
  YSB1171              JUNCTION     0.42     0.69     9.60     0  03:01        0.69
  YS02006553           JUNCTION     0.98     1.97     8.25     0  03:00        1.96
  YS02006561           JUNCTION     0.35     1.13     7.79     0  02:50        1.08
  YS02006556           JUNCTION     0.95     1.93     8.24     0  03:00        1.92
  YS02006558           JUNCTION     0.99     1.97     8.24     0  02:59        1.97
  YS02001783           JUNCTION     0.60     2.40     8.54     0  02:43        1.47
  YS02001784           JUNCTION     0.62     2.29     8.36     0  02:43        1.42
  YS02001786           JUNCTION     0.56     2.02     8.05     0  02:43        1.27
  YS02001788           JUNCTION     0.51     1.74     7.72     0  02:43        1.14
  YS02001790           JUNCTION     0.65     1.96     7.60     0  02:42        1.30
  YS02001791           JUNCTION     0.66     1.60     7.07     0  02:42        1.28
  YS02001793           JUNCTION     0.95     1.95     6.78     0  02:43        1.80
  WS02004139           JUNCTION     0.37     0.63     5.54     0  00:10        0.63
  WSC                  OUTFALL      0.25     0.36     1.03     0  03:08        0.36
  3                    OUTFALL      0.10     0.23     6.23     0  00:00        0.19
  4                    OUTFALL      0.01     0.13     7.13     0  03:03        0.13
  5                    OUTFALL      0.00     0.00     5.00     0  00:00        0.00
  JK-storage           STORAGE      3.45     5.80     6.60     0  02:42        5.80
  CC-storage           STORAGE      1.08     1.38     8.38     0  03:30        1.38
  XR-storage           STORAGE      7.62     7.72     5.72     0  01:18        7.72
  
  
  *******************
  Node Inflow Summary
  *******************
  
  -------------------------------------------------------------------------------------------------
                                  Maximum  Maximum                  Lateral       Total        Flow
                                  Lateral    Total  Time of Max      Inflow      Inflow     Balance
                                   Inflow   Inflow   Occurrence      Volume      Volume       Error
  Node                 Type           LPS      LPS  days hr:min    10^6 ltr    10^6 ltr     Percent
  -------------------------------------------------------------------------------------------------
  WS02001211           JUNCTION      7.35   288.22     0  00:09       0.207        1.31       0.957
  WS02001212           JUNCTION      0.00   285.47     0  00:10           0         1.3       0.557
  WS02001213           JUNCTION      0.00   284.90     0  00:11           0         1.3       1.236
  WS02003069           JUNCTION      0.32   793.79     0  03:07     0.00902        10.1       0.195
  WS02003072           JUNCTION      0.00   793.51     0  03:07           0          10       0.261
  WS02003073           JUNCTION      1.82   795.21     0  03:08      0.0514        10.1       0.276
  WS02003060           JUNCTION     16.53   801.89     0  03:05       0.466        10.1       0.189
  WS02003066           JUNCTION      0.00   784.80     0  03:05           0        8.36       0.054
  WS02003059           JUNCTION      0.00   279.29     0  00:11           0        1.29       2.053
  WS02003067           JUNCTION      0.00   784.38     0  03:05           0        8.37       0.113
  WS02004401           JUNCTION      0.00   787.59     0  03:03           0        8.61       0.254
  WS02004402           JUNCTION      0.00   787.65     0  03:03           0        8.59       0.239
  WS02004403           JUNCTION      0.00   787.71     0  03:03           0        8.57       0.217
  WS02004404           JUNCTION      0.16   787.93     0  03:03     0.00457        8.55       0.163
  WS02004406           JUNCTION      0.00   788.02     0  03:03           0        8.52       0.396
  WS02004409           JUNCTION      0.00   787.80     0  03:03           0        8.48       0.197
  WS02004410           JUNCTION      0.00   786.22     0  03:04           0        8.46       0.223
  WS02004411           JUNCTION      0.00   785.07     0  03:04           0        8.44       0.228
  WS02004412           JUNCTION      0.00   784.51     0  03:04           0        8.42       0.246
  WS02004413           JUNCTION      0.00   784.31     0  03:05           0         8.4       0.364
  WS02004405           JUNCTION      0.04   787.99     0  03:03     0.00107        8.54       0.246
  WS02006109           JUNCTION      1.23   773.04     0  03:02      0.0347        8.67       0.266
  WS02006110           JUNCTION      0.00   772.99     0  03:02           0        8.64       0.235
  WS02006111           JUNCTION      0.00   769.88     0  03:03           0        8.61       0.051
  WS02006112           JUNCTION     26.73   786.99     0  03:03      0.0709        8.68       0.330
  WS02006113           JUNCTION      0.00   773.00     0  03:02           0        8.62       0.117
  WS02006115           JUNCTION      0.00   787.02     0  03:03           0        8.65       0.243
  WS02006116           JUNCTION      0.00   787.42     0  03:03           0        8.63       0.233
  WS02006230           JUNCTION     10.28   348.12     0  03:27        0.29        6.58       0.205
  WS02006231           JUNCTION      0.00   335.94     0  03:27           0         6.3       0.186
  WS02006232           JUNCTION      0.00   335.81     0  03:26           0        6.31       0.263
  WS02006234           JUNCTION      0.00   334.68     0  03:27           0        6.32       0.137
  WS02006235           JUNCTION      0.00   334.04     0  03:27           0        6.36       0.168
  WS02006238           JUNCTION      0.00   249.90     0  03:21           0        4.31       0.186
  WS02006240           JUNCTION      0.00   247.12     0  03:21           0        4.32       0.284
  WS02006242           JUNCTION      0.00   246.45     0  03:19           0        4.32       0.339
  WS02006243           JUNCTION      0.00   243.42     0  03:20           0        4.33       0.196
  WS02006245           JUNCTION      0.00   241.48     0  03:20           0        4.33       0.181
  WS02006247           JUNCTION      0.00   241.36     0  02:23           0        4.34       0.159
  WS02006248           JUNCTION      0.00   243.61     0  02:22           0        4.35       0.104
  WS02006249           JUNCTION      0.00   333.77     0  03:02           0        4.56       0.216
  WS02006239           JUNCTION      0.00   248.85     0  03:20           0        4.31       0.277
  WS02006251           JUNCTION      0.08   334.29     0  03:01     0.00217        4.57       0.193
  WS02006252           JUNCTION      0.00   200.00     0  02:06           0        4.16       0.010
  WS02006253           JUNCTION      3.67   134.78     0  03:01     0.00915       0.412       0.917
  WS02006256           JUNCTION      0.00   600.00     0  00:00           0        5.74       0.037
  WS02004138           JUNCTION      0.00   285.00     0  00:00           0        1.11       0.170
  WS02004407           JUNCTION      0.00   788.11     0  03:03           0        8.49       0.089
  WS02006228           JUNCTION      0.00   771.78     0  03:02           0        8.65       0.190
  WS02006229           JUNCTION      0.00   771.75     0  03:02           0        8.66       0.131
  WS02006280           JUNCTION      0.00   611.96     0  03:02           0         2.1       0.003
  WS02006284           JUNCTION      0.10   611.06     0  03:02      0.0027         2.1       0.059
  WS02006287           JUNCTION      0.00   609.84     0  03:02           0         2.1       0.034
  WSF200               JUNCTION      0.00   784.93     0  03:05           0        8.36       0.050
  HS02004901           JUNCTION     32.58    32.58     0  03:01      0.0853      0.0856       2.107
  HS02004881           JUNCTION     13.69   131.68     0  03:01      0.0372       0.403       0.076
  HS02004876           JUNCTION     24.31   119.37     0  03:01      0.0714       0.367       0.153
  HS02004870           JUNCTION     25.15    96.63     0  03:01      0.0703       0.295       0.038
  HS02004862           JUNCTION     23.13    73.48     0  03:01      0.0763       0.225       0.079
  HS02004856           JUNCTION     18.81    51.87     0  03:01      0.0529        0.15       0.974
  HS02004852           JUNCTION      0.00    35.11     0  03:01           0      0.0975       0.061
  HS02004848           JUNCTION     51.30    51.30     0  03:01        0.17        0.17       0.030
  HS02004842           JUNCTION      0.00    15.11     0  03:01           0      0.0852      18.024
  HS02004837           JUNCTION     48.64    62.30     0  03:01       0.302       0.374       0.219
  HS02004830           JUNCTION      0.15    61.39     0  03:01     0.00423       0.364       0.340
  HS02004824           JUNCTION     61.99   121.76     0  03:01       0.222       0.584       0.093
  HS02004817           JUNCTION      0.60   117.99     0  03:02      0.0169       0.601       2.855
  HS02004807           JUNCTION     46.68   158.05     0  03:01       0.129       0.713       0.602
  HS02004802           JUNCTION      0.00   156.92     0  03:03           0       0.709       0.570
  HS02004799           JUNCTION     37.02   389.11     0  03:01       0.105        1.19       0.207
  HS02004792           JUNCTION    159.34   356.45     0  03:01       0.445        1.08       0.038
  HS02004788           JUNCTION     52.70   202.58     0  03:02       0.193       0.638       0.061
  HS02004785           JUNCTION      0.15   157.28     0  03:01     0.00423       0.447       0.112
  HS02004777           JUNCTION      0.03   160.02     0  03:01    0.000846       0.447       1.175
  HS02004770           JUNCTION    133.95   163.77     0  03:01       0.365       0.449       0.699
  HS02004480           JUNCTION      0.00   456.69     0  03:01           0         1.4       0.083
  HS02004479           JUNCTION      0.00    72.19     0  03:02           0       0.228       0.322
  HS02004478           JUNCTION      0.00   609.31     0  03:02           0         2.1       0.018
  YS02001745           JUNCTION    387.96   454.12     0  02:45        2.65        2.65       0.425
  YS02001748           JUNCTION      0.04   656.00     0  02:46     0.00127        2.64       0.861
  YS02001751           JUNCTION      0.01   398.19     0  03:01     0.00031        2.61       0.906
  YS02001754           JUNCTION      0.26   398.51     0  03:01     0.00733         2.6       0.961
  YS02001762           JUNCTION      0.00   381.26     0  02:54           0        1.77       1.209
  YS02001765           JUNCTION      0.00   381.32     0  02:54           0        1.77       1.397
  YS02001767           JUNCTION      0.54   381.58     0  02:54      0.0151        1.79       2.039
  YS02001770           JUNCTION    496.57   496.57     0  03:01        2.97        3.11       1.026
  YS02001774           JUNCTION      0.00   389.81     0  03:31           0        1.43       1.785
  YS02001779           JUNCTION      0.01   390.11     0  03:31    0.000141         1.4       1.094
  YS02001882           JUNCTION      0.00    40.83     0  02:47           0       0.018      14.802
  YS02001884           JUNCTION      0.00    61.99     0  02:44           0      0.0529      13.640
  YS02001759           JUNCTION    483.56   765.67     0  02:55        2.74        4.34       0.533
  YS02001887           JUNCTION    623.03   623.21     0  03:01        3.16        3.19       0.276
  YS02001890           JUNCTION      0.00   623.09     0  03:01           0        3.14       0.302
  YS02001898           JUNCTION      0.00   517.53     0  03:05           0        3.09       0.116
  YS02001901           JUNCTION      0.00   517.39     0  03:05           0        3.08       0.227
  YS02001904           JUNCTION      0.00   517.44     0  03:05           0        3.08       0.209
  YS02001907           JUNCTION      0.00  1061.83     0  03:01           0        6.88       0.354
  YS02001910           JUNCTION      0.00   549.93     0  02:53           0        3.81       0.319
  YS02001915           JUNCTION    347.37   549.68     0  02:53        2.22        3.86       0.164
  YS02001918           JUNCTION      0.00   289.67     0  02:53           0        1.66       0.123
  YS02001619           JUNCTION    337.96   337.96     0  03:01        2.21        2.21       0.555
  YS02001629           JUNCTION      0.00   222.36     0  02:49           0        1.57       1.869
  YS02001641           JUNCTION      0.00   467.23     0  02:50           0        4.09       0.519
  YS02001644           JUNCTION    368.39  1123.00     0  03:26        2.55        9.05       0.290
  YS02001652           JUNCTION      0.00   484.66     0  03:01           0        2.31       1.004
  YS02001655           JUNCTION      0.15   484.99     0  03:01     0.00434        2.33       1.092
  YS02001920           JUNCTION      2.87   289.60     0  02:53      0.0809        1.64       0.189
  YS02001923           JUNCTION      0.04   257.69     0  02:53     0.00106        1.55       0.050
  YS02001926           JUNCTION      0.05   218.15     0  02:53     0.00147        1.53       0.226
  YS02001929           JUNCTION    163.23   163.23     0  03:01        1.53        1.53       0.038
  YS02001658           JUNCTION      0.00   624.63     0  02:42           0        2.36       1.014
  YS02001661           JUNCTION      0.00   738.12     0  02:55           0        3.08      -0.158
  YS02001664           JUNCTION    446.68   446.68     0  03:01        2.35        3.08       0.219
  YS02001622           JUNCTION      0.00   338.18     0  03:01           0        2.19       1.469
  YS02001633           JUNCTION    373.80   467.39     0  02:50        2.63        4.15       0.781
  YS02001649           JUNCTION      0.00   987.06     0  02:50           0        4.99       0.751
  YS02001757           JUNCTION      0.00  1932.94     0  02:52           0        9.24       1.010
  YS02001895           JUNCTION      0.00   517.45     0  03:05           0        3.09       0.163
  YS02001625           JUNCTION      0.00   338.16     0  03:01           0        2.16       1.811
  YS02163301           JUNCTION      0.00   222.34     0  02:49           0        1.55       1.572
  YS02163601           JUNCTION      0.11   467.27     0  02:50      0.0031        4.11       0.738
  YS02164001           JUNCTION      0.00   467.40     0  02:50           0        4.09       0.495
  YS02001647           JUNCTION      0.00   711.85     0  02:50           0           4       0.711
  YSB1154              JUNCTION     43.21    43.21     0  03:01       0.127       0.128       1.144
  YSB6556              JUNCTION      0.00    41.76     0  03:01           0       0.129       0.980
  YSB1174              JUNCTION     35.94    35.94     0  03:01      0.0924      0.0931       1.403
  YSB1171              JUNCTION      0.00    73.33     0  03:01           0       0.227       2.865
  YS02006553           JUNCTION      0.00   672.02     0  03:32           0        6.13       0.254
  YS02006561           JUNCTION      0.00   969.15     0  03:00           0        8.97       0.007
  YS02006556           JUNCTION      0.00   671.91     0  03:32           0        6.13       0.186
  YS02006558           JUNCTION    532.26   969.44     0  03:00         2.9           9       0.062
  YS02001783           JUNCTION      0.00   969.21     0  03:00           0        8.97       0.027
  YS02001784           JUNCTION      1.06   970.32     0  03:01      0.0299           9       0.045
  YS02001786           JUNCTION      0.06   970.27     0  03:01     0.00159           9       0.041
  YS02001788           JUNCTION      0.07   970.42     0  03:01       0.002           9       0.024
  YS02001790           JUNCTION      0.15   970.58     0  03:01     0.00437           9       0.030
  YS02001791           JUNCTION      0.00   970.60     0  03:01           0           9       0.014
  YS02001793           JUNCTION      0.00   970.74     0  03:01           0           9       0.006
  WS02004139           JUNCTION      0.32   290.33     0  00:00     0.00905        1.12       1.584
  WSC                  OUTFALL       0.00   795.09     0  03:08           0          10       0.000
  3                    OUTFALL       0.00   597.65     0  00:00           0        3.66       0.000
  4                    OUTFALL       0.00   152.33     0  03:03           0       0.207       0.000
  5                    OUTFALL       0.00     0.00     0  00:00           0           0       0.000 ltr
  JK-storage           STORAGE       0.00   970.64     0  03:01           0        9.15      -0.310
  CC-storage           STORAGE       0.00  1932.68     0  02:52           0        7.96       0.817
  XR-storage           STORAGE     849.17   849.17     0  03:01        10.2        10.8       0.000
  
  
  **********************
  Node Surcharge Summary
  **********************
  
  Surcharging occurs when water rises above the top of the highest conduit.
  ---------------------------------------------------------------------
                                               Max. Height   Min. Depth
                                   Hours       Above Crown    Below Rim
  Node                 Type      Surcharged         Meters       Meters
  ---------------------------------------------------------------------
  WS02004401           JUNCTION        0.29          0.092        1.568
  WS02004402           JUNCTION        0.34          0.096        1.644
  WS02004403           JUNCTION        0.35          0.088        1.942
  WS02004404           JUNCTION        0.74          0.141        2.639
  WS02004406           JUNCTION        0.57          0.094        2.356
  WS02004405           JUNCTION        0.66          0.123        2.677
  WS02006109           JUNCTION        1.59          0.418        1.402
  WS02006110           JUNCTION        1.06          0.182        1.668
  WS02006112           JUNCTION        1.19          0.362        1.318
  WS02006115           JUNCTION        0.09          0.031        2.219
  WS02006116           JUNCTION        0.12          0.040        2.250
  WS02006230           JUNCTION        0.68          0.268        1.302
  WS02006231           JUNCTION        0.82          0.274        1.256
  WS02006232           JUNCTION        1.37          0.375        1.105
  WS02006234           JUNCTION        0.99          0.245        0.995
  WS02006235           JUNCTION        1.13          0.260        1.030
  WS02006238           JUNCTION        1.19          0.272        1.158
  WS02006240           JUNCTION        0.82          0.150        1.240
  WS02006242           JUNCTION        0.96          0.171        0.649
  WS02006243           JUNCTION        0.30          0.055        0.715
  WS02006245           JUNCTION        0.03          0.004        0.846
  WS02006239           JUNCTION        0.96          0.200        1.090
  WS02006256           JUNCTION        0.01          1.050        0.000
  WS02006228           JUNCTION        1.57          0.522        1.678
  YS02001748           JUNCTION        5.03          1.190        0.000
  YS02001751           JUNCTION        5.13          1.200        0.000
  YS02001754           JUNCTION        5.29          1.109        0.041
  YS02001762           JUNCTION        5.51          1.089        0.061
  YS02001765           JUNCTION        5.49          1.037        0.063
  YS02001767           JUNCTION        5.47          0.963        0.067
  YS02001770           JUNCTION        5.45          0.920        0.000
  YS02001774           JUNCTION        5.50          1.014        0.036
  YS02001779           JUNCTION        5.28          0.680        0.000
  YS02001882           JUNCTION        1.03          0.649        0.181
  YS02001884           JUNCTION        1.06          0.682        0.188
  YS02001759           JUNCTION        5.54          1.120        0.090
  YS02001887           JUNCTION        1.14          0.761        0.189
  YS02001890           JUNCTION        1.17          0.760        0.000
  YS02001898           JUNCTION        0.99          0.538        0.202
  YS02001901           JUNCTION        1.11          0.677        0.193
  YS02001904           JUNCTION        1.09          0.642        0.208
  YS02001907           JUNCTION        1.66          0.950        0.000
  YS02001910           JUNCTION        1.21          0.792        0.308
  YS02001915           JUNCTION        1.02          0.637        0.363
  YS02001918           JUNCTION        0.78          0.407        0.403
  YS02001619           JUNCTION        5.14          0.610        0.000
  YS02001629           JUNCTION        5.15          0.470        0.000
  YS02001641           JUNCTION        5.50          0.995        0.105
  YS02001644           JUNCTION        5.50          0.920        0.000
  YS02001652           JUNCTION        5.30          1.130        0.000
  YS02001655           JUNCTION        5.15          1.200        0.000
  YS02001920           JUNCTION        0.82          0.411        0.729
  YS02001658           JUNCTION        5.05          1.300        0.000
  YS02001661           JUNCTION        0.27          1.390        0.000
  YS02001622           JUNCTION        5.16          0.620        0.000
  YS02001633           JUNCTION        5.48          0.990        0.070
  YS02001649           JUNCTION        5.52          1.050        0.000
  YS02001757           JUNCTION        5.62          1.210        0.000
  YS02001895           JUNCTION        1.00          0.568        0.182
  YS02001625           JUNCTION        5.34          0.780        0.000
  YS02163301           JUNCTION        5.46          0.936        0.094
  YS02163601           JUNCTION        5.52          1.080        0.000
  YS02164001           JUNCTION        5.49          1.018        0.082
  YS02001647           JUNCTION        5.30          0.811        0.089
  YS02006553           JUNCTION        1.72          0.971        0.219
  YS02006561           JUNCTION        0.91          0.328        0.822
  YS02006556           JUNCTION        1.41          0.891        0.459
  YS02006558           JUNCTION        1.37          0.874        0.526
  YS02001783           JUNCTION        1.44          1.600        0.000
  YS02001784           JUNCTION        1.50          1.490        0.000
  YS02001786           JUNCTION        1.44          1.222        0.208
  YS02001788           JUNCTION        1.43          0.943        0.537
  YS02001790           JUNCTION        2.84          1.157        0.000
  YS02001791           JUNCTION        2.97          0.795        1.125
  YS02001793           JUNCTION        3.17          0.948        1.652
  
  
  *********************
  Node Flooding Summary
  *********************
  
  Flooding refers to all water that overflows a node, whether it ponds or not.
  --------------------------------------------------------------------------
                                                             Total   Maximum
                                 Maximum   Time of Max       Flood    Ponded
                        Hours       Rate    Occurrence      Volume     Depth
  Node                 Flooded       LPS   days hr:min    10^6 ltr    Meters
  --------------------------------------------------------------------------
  WS02006256              0.01    406.11      0  00:00       0.001     0.000
  YS02001748              0.01    380.73      0  02:46       0.001     0.000
  YS02001751              0.01     55.30      0  02:46       0.000     0.000
  YS02001770              0.01      6.93      0  02:47       0.000     0.000
  YS02001779              2.69    390.03      0  03:31       1.384     0.000
  YS02001890              0.23    107.17      0  03:01       0.038     0.000
  YS02001907              0.65    617.94      0  03:01       0.739     0.000
  YS02001619              0.01     19.03      0  02:43       0.000     0.000
  YS02001629              0.01     35.86      0  02:43       0.000     0.000
  YS02001644              4.91   1122.88      0  03:26       7.457     0.000
  YS02001652              0.01     12.93      0  03:05       0.000     0.000
  YS02001655              0.01     12.58      0  02:56       0.000     0.000
  YS02001658              0.01     13.50      0  03:05       0.000     0.000
  YS02001661              0.01    139.41      0  02:56       0.000     0.000
  YS02001622              0.01     30.59      0  02:43       0.000     0.000
  YS02001649              0.10     44.15      0  02:58       0.004     0.000
  YS02001757              0.01      8.31      0  02:46       0.000     0.000
  YS02001625              1.13    317.99      0  03:01       0.556     0.000
  YS02163601              0.01      2.86      0  02:46       0.000     0.000
  YS02001783              0.01     94.50      0  02:43       0.000     0.000
  YS02001784              0.01     45.51      0  02:43       0.000     0.000
  YS02001790              0.01    123.10      0  02:42       0.000     0.000
  JK-storage              2.52    670.53      0  03:01       3.447     0.000
  XR-storage              6.52    849.13      0  03:01       8.768     0.000
  
  
  **********************
  Storage Volume Summary
  **********************
  
  --------------------------------------------------------------------------------------------------
                         Average     Avg  Evap Exfil       Maximum     Max    Time of Max    Maximum
                          Volume    Pcnt  Pcnt  Pcnt        Volume    Pcnt     Occurrence    Outflow
  Storage Unit           1000 m3    Full  Loss  Loss       1000 m3    Full    days hr:min        LPS
  --------------------------------------------------------------------------------------------------
  JK-storage               0.173      59     0     0         0.291     100       0  02:42     600.00
  CC-storage               3.023      19     0     0         3.855      25       0  03:30     200.00
  XR-storage               0.915      99     0     0         0.926     100       0  01:18     285.00
  
  
  ***********************
  Outfall Loading Summary
  ***********************
  
  -----------------------------------------------------------
                         Flow       Avg       Max       Total
                         Freq      Flow      Flow      Volume
  Outfall Node           Pcnt       LPS       LPS    10^6 ltr
  -----------------------------------------------------------
  WSC                   99.99    417.88    795.09      10.036
  3                     94.94    174.92    597.65       3.661
  4                     17.65     56.81    152.33       0.207
  5                      0.00      0.00      0.00       0.000
  -----------------------------------------------------------
  System                53.15    649.61   1233.54      13.905
  
  
  ********************
  Link Flow Summary
  ********************
  
  -----------------------------------------------------------------------------
                                 Maximum  Time of Max   Maximum    Max/    Max/
                                  |Flow|   Occurrence   |Veloc|    Full    Full
  Link                 Type          LPS  days hr:min     m/sec    Flow   Depth
  -----------------------------------------------------------------------------
  WS02003066WSF200     CONDUIT    784.93     0  03:05      3.11    0.13    0.27
  WS02006287WS02006284 CONDUIT    610.97     0  03:02      2.31    0.28    0.37
  WS02006284WS02006280 CONDUIT    611.96     0  03:02      2.55    0.26    0.35
  WS02006280WS02006229 CONDUIT    612.08     0  03:02      4.12    0.13    0.24
  WS02006229WS02006228 CONDUIT    771.78     0  03:02      1.54    2.56    1.00
  WS02006256WS02006235 CONDUIT    177.52     0  00:01      2.73    1.88    1.00
  WS02006253WS02006251 CONDUIT    134.21     0  03:01      0.45    0.40    0.89
  WS02006252WS02006251 CONDUIT    200.32     0  02:06      1.97    0.74    0.76
  WS02006251WS02006249 CONDUIT    333.77     0  03:02      0.97    0.96    0.88
  WS02006249WS02006248 CONDUIT    243.61     0  02:22      1.05    1.33    0.88
  WS02006248WS02006247 CONDUIT    241.36     0  02:23      1.02    0.53    0.95
  WS02006247WS02006245 CONDUIT    241.48     0  03:20      0.99    1.91    1.00
  WS02006245WS02006243 CONDUIT    243.42     0  03:20      1.04    0.72    1.00
  WS02006243WS02006242 CONDUIT    246.45     0  03:19      0.85    0.53    1.00
  WS02006242WS02006240 CONDUIT    247.12     0  03:21      0.72    0.98    1.00
  WS02006240WS02006239 CONDUIT    248.85     0  03:20      0.70    0.78    1.00
  WS02006239WS02006238 CONDUIT    249.90     0  03:21      0.69    0.80    1.00
  WS02006238WS02006235 CONDUIT    249.98     0  03:21      1.32    0.56    1.00
  WS02006235WS02006234 CONDUIT    334.68     0  03:27      0.94    3.53    1.00
  WS02006234WS02006232 CONDUIT    335.81     0  03:26      1.17    0.68    1.00
  WS02006232WS02006231 CONDUIT    335.94     0  03:27      0.94    0.70    1.00
  WS02006231WS02006230 CONDUIT    337.84     0  03:27      1.29    5.12    1.00
  WS02006230WS02006229 CONDUIT    350.60     0  03:26      0.91    7.80    1.00
  WS02006228WS02006109 CONDUIT    771.81     0  03:02      1.54    3.37    1.00
  WS02006116WS02004401 CONDUIT    787.59     0  03:03      1.00    1.09    1.00
  WS02006115WS02006116 CONDUIT    787.42     0  03:03      1.00    1.01    1.00
  WS02006113WS02006111 CONDUIT    769.88     0  03:03      2.58    0.92    0.73
  WS02006112WS02006115 CONDUIT    787.02     0  03:03      1.00    0.46    1.00
  WS02006111WS02006112 CONDUIT    769.67     0  03:03      1.72    0.37    0.85
  WS02006110WS02006113 CONDUIT    773.00     0  03:02      1.67    0.70    0.87
  WS02006109WS02006110 CONDUIT    772.99     0  03:02      1.54    1.49    1.00
  WS02004411WS02004412 CONDUIT    784.51     0  03:04      1.13    1.11    0.83
  WS02004401WS02004402 CONDUIT    787.65     0  03:03      1.00    0.95    1.00
  WS02004413WS02003067 CONDUIT    784.38     0  03:05      1.37    0.34    0.68
  WS02004412WS02004413 CONDUIT    784.31     0  03:05      1.06    0.53    0.89
  WS02004410WS02004411 CONDUIT    785.07     0  03:04      1.12    1.07    0.84
  WS02004409WS02004410 CONDUIT    786.22     0  03:04      1.12    1.02    0.84
  WS02004407WS02004409 CONDUIT    787.80     0  03:03      1.61    0.28    0.60
  WS02004406WS02004407 CONDUIT    788.11     0  03:03      1.38    0.35    0.68
  WS02004405WS02004406 CONDUIT    788.02     0  03:03      1.00    1.55    1.00
  WS02004404WS02004405 CONDUIT    787.95     0  03:03      1.00    7.72    1.00
  WS02004403WS02004404 CONDUIT    787.77     0  03:03      1.00    0.57    1.00
  WS02004402WS02004403 CONDUIT    787.71     0  03:03      1.00    1.13    1.00
  WS02004139WS02001211 CONDUIT    280.87     0  00:09      0.80    0.36    0.50
  WS02004138WS02004139 CONDUIT    290.01     0  00:00      3.34    0.06    0.37
  WS02003067WS02003066 CONDUIT    784.80     0  03:05      1.50    0.25    0.47
  WS02001213WS02003059 CONDUIT    279.29     0  00:11      0.80    0.46    0.67
  WS02001212WS02001213 CONDUIT    284.90     0  00:11      1.18    0.44    0.35
  WS02001211WS02001212 CONDUIT    285.47     0  00:10      0.66    0.22    0.54
  WS02003072WS02003073 CONDUIT    793.39     0  03:08      1.63    1.71    0.45
  WS02003069WS02003072 CONDUIT    793.51     0  03:07      1.54    0.38    0.47
  WS02003060WS02003069 CONDUIT    793.47     0  03:07      1.79    0.31    0.41
  WS02003059WS02003060 CONDUIT    275.35     0  00:13      0.80    0.18    0.59
  HS02004901HS02004770 CONDUIT     32.24     0  03:01      0.09    0.12    0.50
  HS02004876HS02004881 CONDUIT    119.33     0  03:01      1.17    1.27    0.15
  HS02004870HS02004876 CONDUIT     96.13     0  03:01      0.79    0.06    0.17
  HS02004842HS02004848 CONDUIT     15.11     0  03:01      0.07    0.01    0.33
  HS02004837HS02004842 CONDUIT     16.10     0  03:03      0.41    0.01    0.34
  HS02004830HS02004837 CONDUIT     61.24     0  03:01      0.66    0.06    0.13
  HS02004824HS02004830 CONDUIT     60.79     0  03:01      0.63    0.08    0.15
  HS02004817HS02004824 CONDUIT    117.39     0  03:02      0.30    0.05    0.56
  HS02004770HS02004777 CONDUIT    159.99     0  03:01      0.45    0.29    0.51
  HS02004799HS02004480 CONDUIT    387.38     0  03:01      1.00    0.49    0.56
  HS02004792HS02004799 CONDUIT    353.06     0  03:01      1.12    0.22    0.45
  HS02004788HS02004792 CONDUIT    202.14     0  03:02      1.22    0.13    0.24
  HS02004785HS02004788 CONDUIT    156.68     0  03:02      0.85    1.18    0.26
  HS02004777HS02004785 CONDUIT    157.13     0  03:01      0.53    0.19    0.42
  HS02004480HS02004478 CONDUIT    456.75     0  03:01      1.47    1.92    0.44
  HS02004479HS02004480 CONDUIT     74.08     0  03:02      0.22    0.07    0.53
  HS02004862HS02004870 CONDUIT     73.11     0  03:01      0.77    0.08    0.14
  HS02004848HS02004852 CONDUIT     35.11     0  03:01      0.52    0.04    0.10
  HS02004856HS02004862 CONDUIT     51.23     0  03:01      0.58    0.05    0.13
  HS02004852HS02004856 CONDUIT     35.03     0  03:02      0.32    0.04    0.16
  HS02004802HS02004478 CONDUIT    160.69     0  03:04      0.54    0.14    0.45
  HS02004478WS02006287 CONDUIT    609.84     0  03:02      2.03    0.17    0.33
  HS02004817HS02004807 CONDUIT    120.81     0  03:04      0.24    0.07    0.73
  HS02004807HS02004802 CONDUIT    156.92     0  03:03      0.45    0.30    0.51
  YS02001759YS02001757 CONDUIT    765.77     0  02:55      0.98    0.54    1.00
  YS02001762YS02001759 CONDUIT    381.41     0  02:54      0.49    0.44    1.00
  YS02001765YS02001762 CONDUIT    381.26     0  02:54      0.49    0.36    1.00
  YS02001770YS02001767 CONDUIT    381.05     0  02:54      0.49    1.51    1.00
  YS02001774YS02001770 CONDUIT    389.81     0  03:31      0.50    0.25    1.00
  YS02001779YS02001774 CONDUIT    390.10     0  03:31      0.50    0.20    1.00
  YS02001649YS02001757 CONDUIT    987.03     0  02:50      1.26    0.60    1.00
  YS02001767YS02001765 CONDUIT    381.32     0  02:54      0.49    0.48    1.00
  YS02006561YS02001783 CONDUIT    969.21     0  03:00      2.11    0.50    1.00
  YS02001783YS02001784 CONDUIT    969.26     0  03:01      1.93    1.34    1.00
  YS02001784YS02001785 CONDUIT    970.22     0  03:01      1.93    2.26    1.00
  YS02001788YS02001790 CONDUIT    970.42     0  03:01      2.32    0.72    1.00
  YS02001790YS02001791 CONDUIT    970.60     0  03:01      2.82    1.06    1.00
  YS02001791YS02001793 CONDUIT    970.74     0  03:01      5.67    0.42    1.00
  YS02001910YS02001907 CONDUIT    549.74     0  02:53      0.70    0.31    1.00
  YS02001786YS02001788 CONDUIT    970.35     0  03:01      2.22    1.87    1.00
  YS02001915YS02001910 CONDUIT    549.93     0  02:53      0.70    0.27    1.00
  YS02001918YS02001915 CONDUIT    290.12     0  02:53      0.44    0.16    1.00
  YS02001923YS02001920 CONDUIT    286.73     0  02:53      0.72    0.13    1.00
  YS02001926YS02001923 CONDUIT    257.65     0  02:53      0.82    0.37    0.98
  YS02001929YS02001926 CONDUIT    218.10     0  02:53      0.87    0.10    0.86
  YS02001920YS02001918 CONDUIT    289.67     0  02:53      0.70    0.28    1.00
  YS02001629YS02163301 CONDUIT    222.34     0  02:49      0.28    0.27    1.00
  YS02001619YS02001622 CONDUIT    338.18     0  03:01      0.60    0.50    1.00
  YS02001622YS02001625 CONDUIT    338.16     0  03:01      0.43    0.18    1.00
  YS02001625YS02001629 CONDUIT    222.36     0  02:49      0.28    0.11    1.00
  YS02163301YS02001633 CONDUIT    222.27     0  02:49      0.28    0.21    1.00
  YS02163601YS02164001 CONDUIT    467.40     0  02:50      0.60    0.41    1.00
  YS02164001YS02001641 CONDUIT    467.23     0  02:50      0.59    0.64    1.00
  YS02001641YS02001644 CONDUIT    467.16     0  02:50      0.59    1.51    1.00
  YS02001647YS02001649 CONDUIT    711.80     0  02:50      0.91    0.38    1.00
  YS02006553YS02006556 CONDUIT    671.91     0  03:32      0.86    0.57    1.00
  YS02006556YS02006558 CONDUIT    672.13     0  03:32      0.86    0.53    1.00
  YSB6556YSB1171       CONDUIT     41.33     0  03:02      0.13    0.04    0.80
  YS02001907YS02006553 CONDUIT    672.02     0  03:32      0.75    0.79    1.00
  YS02006558YS02006561 CONDUIT    969.15     0  03:00      3.43    2.14    1.00
  YS02001633YS02163601 CONDUIT    467.16     0  02:50      0.59    0.49    1.00
  YS02001644YS02001647 CONDUIT    711.85     0  02:50      0.91    0.42    1.00
  YS02001745YS02001748 CONDUIT    655.95     0  02:46      1.48    0.25    0.94
  YS02001748YS02001751 CONDUIT    398.18     0  03:01      1.03    0.20    1.00
  YS02001751YS02001754 CONDUIT    398.25     0  03:01      0.84    0.19    1.00
  YS02001754YS02001757 CONDUIT    398.23     0  03:01      0.51    0.16    1.00
  YS02001882YS02001884 CONDUIT     40.83     0  02:47      0.08    0.05    1.00
  YS02001884YS02001887 CONDUIT     61.99     0  02:44      0.08    0.08    1.00
  YS02001890YS02001895 CONDUIT    517.45     0  03:05      0.66    0.24    1.00
  YS02001895YS02001898 CONDUIT    517.53     0  03:05      0.66    0.90    1.00
  YS02001898YS02001901 CONDUIT    517.39     0  03:05      0.66    0.33    1.00
  YS02001901YS02001904 CONDUIT    517.44     0  03:05      0.66    0.80    1.00
  YS02001904YS02001907 CONDUIT    517.50     0  03:05      0.66    0.18    1.00
  YS02001887YS02001890 CONDUIT    623.09     0  03:01      0.79    1.07    1.00
  YS02001652YS02001649 CONDUIT    485.18     0  03:01      0.62    0.24    1.00
  YS02001655YS02001652 CONDUIT    484.66     0  03:01      0.89    0.24    1.00
  YS02001658YS02001655 CONDUIT    484.84     0  03:01      1.18    0.21    1.00
  YS02001661YS02001658 CONDUIT    624.63     0  02:42      1.56    0.25    1.00
  YS02001664YS02001661 CONDUIT    738.12     0  02:55      1.59    0.23    0.73
  YSB1154YSB6556       CONDUIT     41.76     0  03:01      0.19    0.08    0.69
  YSB1174YSB1171       CONDUIT     34.49     0  03:01      0.10    0.05    0.81
  YSB1171HS02004479    CONDUIT     72.19     0  03:02      0.54    0.05    0.65
  HS02004881HS02006253 CONDUIT    131.62     0  03:01      1.58    0.03    0.25
  YS02001793JiankangQianchi CONDUIT    970.64     0  03:01     13.02    0.08    1.00
  YS02001757CaochengTiaoxuchi CONDUIT   1932.68     0  02:52      2.71    0.85    1.00
  WSF200WS02003060     CONDUIT    785.36     0  03:05      2.27    0.17    0.34
  1                    CONDUIT    795.09     0  03:08      3.13    0.28    0.36
  2                    CONDUIT    152.33     0  03:03      5.44    0.36    0.42
  3                    CONDUIT    597.65     0  00:00     10.05    0.95    0.86
  4                    CONDUIT      0.00     0  00:00      0.00    0.00    0.00
  CC-Pump-1            PUMP       200.00     0  02:06              1.00
  CC-Pump-2            PUMP         0.00     0  00:00              0.00
  JK-Pump-1            PUMP       300.00     0  00:00              1.00
  JK-Pump-2            PUMP       300.00     0  00:00              1.00
  XR-Pump-1            PUMP        95.00     0  00:00              1.00
  XR-Pump-2            PUMP        95.00     0  00:00              1.00
  XR-Pump-3            PUMP         0.00     0  00:00              0.00
  XR-Pump-4            PUMP        95.00     0  00:00              1.00
  
  
  ***************************
  Flow Classification Summary
  ***************************
  
  -------------------------------------------------------------------------------------
                      Adjusted    ---------- Fraction of Time in Flow Class ---------- 
                       /Actual         Up    Down  Sub   Sup   Up    Down  Norm  Inlet 
  Conduit               Length    Dry  Dry   Dry   Crit  Crit  Crit  Crit  Ltd   Ctrl  
  -------------------------------------------------------------------------------------
  WS02003066WSF200        1.00   0.07  0.00  0.00  0.00  0.93  0.00  0.00  0.59  0.00
  WS02006287WS02006284    1.00   0.03  0.01  0.00  0.59  0.37  0.00  0.00  0.67  0.00
  WS02006284WS02006280    1.00   0.04  0.00  0.00  0.00  0.00  0.00  0.96  0.00  0.00
  WS02006280WS02006229    1.00   0.04  0.00  0.00  0.00  0.00  0.00  0.96  0.00  0.00
  WS02006229WS02006228    1.00   0.00  0.00  0.00  0.98  0.00  0.00  0.02  0.00  0.00
  WS02006256WS02006235    1.00   0.00  0.00  0.00  1.00  0.00  0.00  0.00  0.00  0.00
  WS02006253WS02006251    1.00   0.02  0.01  0.00  0.96  0.00  0.00  0.00  0.00  0.00
  WS02006252WS02006251    1.00   0.07  0.00  0.00  0.00  0.00  0.93  0.00  0.00  0.00
  WS02006251WS02006249    1.00   0.00  0.00  0.00  1.00  0.00  0.00  0.00  0.24  0.00
  WS02006249WS02006248    1.00   0.00  0.02  0.00  0.93  0.00  0.05  0.00  0.00  0.00
  WS02006248WS02006247    1.00   0.02  0.00  0.00  0.97  0.00  0.00  0.01  0.13  0.00
  WS02006247WS02006245    1.00   0.02  0.00  0.00  0.96  0.00  0.00  0.02  0.00  0.00
  WS02006245WS02006243    1.00   0.02  0.00  0.00  0.94  0.00  0.00  0.04  0.01  0.00
  WS02006243WS02006242    1.00   0.01  0.00  0.00  0.99  0.00  0.00  0.00  0.23  0.00
  WS02006242WS02006240    1.00   0.01  0.00  0.00  0.99  0.00  0.00  0.00  0.00  0.00
  WS02006240WS02006239    1.00   0.00  0.00  0.00  0.96  0.00  0.00  0.04  0.02  0.00
  WS02006239WS02006238    1.00   0.00  0.00  0.00  1.00  0.00  0.00  0.00  0.02  0.00
  WS02006238WS02006235    1.00   0.00  0.00  0.00  1.00  0.00  0.00  0.00  0.00  0.00
  WS02006235WS02006234    1.00   0.00  0.00  0.00  0.96  0.00  0.04  0.00  0.00  0.00
  WS02006234WS02006232    1.00   0.00  0.00  0.00  1.00  0.00  0.00  0.00  0.13  0.00
  WS02006232WS02006231    1.00   0.00  0.00  0.00  0.99  0.00  0.01  0.00  0.00  0.00
  WS02006231WS02006230    1.00   0.00  0.00  0.00  0.49  0.00  0.50  0.00  0.00  0.00
  WS02006230WS02006229    1.00   0.00  0.00  0.00  0.98  0.00  0.00  0.02  0.01  0.00
  WS02006228WS02006109    1.00   0.00  0.00  0.00  1.00  0.00  0.00  0.00  0.00  0.00
  WS02006116WS02004401    1.00   0.02  0.00  0.00  0.98  0.00  0.00  0.00  0.00  0.00
  WS02006115WS02006116    1.00   0.02  0.00  0.00  0.97  0.00  0.00  0.01  0.01  0.00
  WS02006113WS02006111    1.00   0.02  0.00  0.00  0.02  0.96  0.00  0.00  0.10  0.00
  WS02006112WS02006115    1.00   0.02  0.00  0.00  0.98  0.00  0.00  0.00  0.00  0.00
  WS02006111WS02006112    1.00   0.02  0.00  0.00  0.98  0.00  0.00  0.00  0.90  0.00
  WS02006110WS02006113    1.00   0.01  0.00  0.00  0.98  0.00  0.00  0.00  0.00  0.00
  WS02006109WS02006110    1.00   0.00  0.01  0.00  0.98  0.00  0.00  0.00  0.00  0.00
  WS02004411WS02004412    1.00   0.05  0.00  0.00  0.95  0.00  0.00  0.00  0.00  0.00
  WS02004401WS02004402    1.00   0.02  0.00  0.00  0.98  0.00  0.00  0.00  0.00  0.00
  WS02004413WS02003067    1.00   0.05  0.01  0.00  0.00  0.00  0.94  0.00  0.00  0.00
  WS02004412WS02004413    1.00   0.05  0.00  0.00  0.95  0.00  0.00  0.00  0.01  0.00
  WS02004410WS02004411    1.00   0.05  0.00  0.00  0.95  0.00  0.00  0.00  0.00  0.00
  WS02004409WS02004410    1.00   0.05  0.00  0.00  0.95  0.00  0.00  0.00  0.00  0.00
  WS02004407WS02004409    1.00   0.05  0.00  0.00  0.95  0.00  0.00  0.00  0.79  0.00
  WS02004406WS02004407    1.00   0.00  0.05  0.00  0.95  0.00  0.00  0.00  0.00  0.00
  WS02004405WS02004406    1.00   0.00  0.00  0.00  1.00  0.00  0.00  0.00  0.02  0.00
  WS02004404WS02004405    1.00   0.00  0.00  0.00  1.00  0.00  0.00  0.00  0.00  0.00
  WS02004403WS02004404    1.00   0.00  0.02  0.00  0.98  0.00  0.00  0.00  0.02  0.00
  WS02004402WS02004403    1.00   0.02  0.00  0.00  0.98  0.00  0.00  0.00  0.00  0.00
  WS02004139WS02001211    1.00   0.00  0.00  0.00  0.99  0.00  0.01  0.00  0.00  0.00
  WS02004138WS02004139    1.00   0.00  0.70  0.00  0.29  0.01  0.00  0.00  1.00  0.00
  WS02003067WS02003066    1.00   0.06  0.00  0.00  0.94  0.00  0.00  0.00  0.00  0.00
  WS02001213WS02003059    1.00   0.00  0.00  0.00  0.99  0.00  0.00  0.00  0.00  0.00
  WS02001212WS02001213    1.00   0.01  0.00  0.00  0.91  0.00  0.09  0.00  0.00  0.00
  WS02001211WS02001212    1.00   0.00  0.00  0.00  1.00  0.00  0.00  0.00  0.00  0.00
  WS02003072WS02003073    1.00   0.00  0.00  0.00  0.00  0.00  0.00  1.00  0.00  0.00
  WS02003069WS02003072    1.00   0.00  0.00  0.00  0.99  0.01  0.00  0.00  0.70  0.00
  WS02003060WS02003069    1.00   0.00  0.00  0.00  0.99  0.01  0.00  0.00  0.23  0.00
  WS02003059WS02003060    1.00   0.00  0.00  0.00  0.99  0.01  0.00  0.00  0.01  0.00
  HS02004901HS02004770    1.00   0.04  0.00  0.00  0.96  0.00  0.00  0.00  0.01  0.00
  HS02004876HS02004881    1.00   0.02  0.00  0.00  0.87  0.11  0.00  0.00  0.00  0.00
  HS02004870HS02004876    1.00   0.01  0.00  0.00  0.99  0.00  0.00  0.00  0.95  0.00
  HS02004842HS02004848    1.00   0.00  0.04  0.00  0.96  0.00  0.00  0.00  0.58  0.00
  HS02004837HS02004842    1.00   0.00  0.00  0.00  0.99  0.01  0.00  0.00  0.11  0.00
  HS02004830HS02004837    1.00   0.00  0.00  0.00  1.00  0.00  0.00  0.00  0.99  0.00
  HS02004824HS02004830    1.00   0.00  0.00  0.00  1.00  0.00  0.00  0.00  0.01  0.00
  HS02004817HS02004824    1.00   0.00  0.00  0.00  1.00  0.00  0.00  0.00  0.98  0.00
  HS02004770HS02004777    1.00   0.00  0.04  0.00  0.96  0.00  0.00  0.00  0.04  0.00
  HS02004799HS02004480    1.00   0.00  0.02  0.00  0.96  0.00  0.02  0.00  0.00  0.00
  HS02004792HS02004799    1.00   0.00  0.00  0.00  0.99  0.01  0.00  0.00  0.98  0.00
  HS02004788HS02004792    1.00   0.00  0.00  0.00  0.99  0.01  0.00  0.00  0.98  0.00
  HS02004785HS02004788    1.00   0.00  0.00  0.00  1.00  0.00  0.00  0.00  0.00  0.00
  HS02004777HS02004785    1.00   0.00  0.00  0.00  1.00  0.00  0.00  0.00  0.15  0.00
  HS02004480HS02004478    1.00   0.04  0.00  0.00  0.67  0.00  0.00  0.29  0.00  0.00
  HS02004479HS02004480    1.00   0.02  0.00  0.00  0.98  0.00  0.00  0.00  0.13  0.00
  HS02004862HS02004870    1.00   0.00  0.00  0.00  1.00  0.00  0.00  0.00  0.06  0.00
  HS02004848HS02004852    1.00   0.04  0.00  0.00  0.96  0.00  0.00  0.00  0.64  0.00
  HS02004856HS02004862    1.00   0.00  0.05  0.00  0.95  0.00  0.00  0.00  0.79  0.00
  HS02004852HS02004856    1.00   0.04  0.00  0.00  0.96  0.00  0.00  0.00  0.81  0.00
  HS02004802HS02004478    1.00   0.04  0.00  0.00  0.96  0.00  0.00  0.00  0.03  0.00
  HS02004478WS02006287    1.00   0.04  0.00  0.00  0.73  0.23  0.00  0.00  0.66  0.00
  HS02004817HS02004807    1.00   0.00  0.04  0.00  0.96  0.00  0.00  0.00  0.01  0.00
  HS02004807HS02004802    1.00   0.04  0.00  0.00  0.96  0.00  0.00  0.00  0.00  0.00
  YS02001759YS02001757    1.00   0.00  0.00  0.00  1.00  0.00  0.00  0.00  0.17  0.00
  YS02001762YS02001759    1.00   0.00  0.00  0.00  1.00  0.00  0.00  0.00  0.04  0.00
  YS02001765YS02001762    1.00   0.00  0.00  0.00  1.00  0.00  0.00  0.00  0.17  0.00
  YS02001770YS02001767    1.00   0.00  0.00  0.00  1.00  0.00  0.00  0.00  0.00  0.00
  YS02001774YS02001770    1.00   0.00  0.04  0.00  0.96  0.00  0.00  0.00  0.04  0.00
  YS02001779YS02001774    1.00   0.00  0.00  0.00  1.00  0.00  0.00  0.00  0.22  0.00
  YS02001649YS02001757    1.00   0.00  0.00  0.00  1.00  0.00  0.00  0.00  0.17  0.00
  YS02001767YS02001765    1.00   0.00  0.00  0.00  1.00  0.00  0.00  0.00  0.01  0.00
  YS02006561YS02001783    1.00   0.05  0.00  0.00  0.47  0.47  0.00  0.00  0.54  0.00
  YS02001783YS02001784    1.00   0.00  0.05  0.00  0.95  0.00  0.00  0.00  0.01  0.00
  YS02001784YS02001785    1.00   0.00  0.00  0.00  1.00  0.00  0.00  0.00  0.21  0.00
  YS02001788YS02001790    1.00   0.00  0.00  0.00  0.56  0.44  0.00  0.00  0.48  0.00
  YS02001790YS02001791    1.00   0.00  0.00  0.00  0.53  0.47  0.00  0.00  0.33  0.00
  YS02001791YS02001793    1.00   0.00  0.00  0.00  0.54  0.46  0.00  0.00  0.02  0.00
  YS02001910YS02001907    1.00   0.00  0.00  0.00  0.98  0.00  0.00  0.02  0.13  0.00
  YS02001786YS02001788    1.00   0.00  0.00  0.00  0.54  0.46  0.00  0.00  0.00  0.00
  YS02001915YS02001910    1.00   0.00  0.00  0.00  0.99  0.01  0.00  0.00  0.19  0.00
  YS02001918YS02001915    1.00   0.00  0.01  0.00  0.99  0.00  0.00  0.00  0.56  0.00
  YS02001923YS02001920    1.00   0.00  0.00  0.00  1.00  0.00  0.00  0.00  0.83  0.00
  YS02001926YS02001923    1.00   0.00  0.03  0.00  0.18  0.00  0.79  0.00  0.00  0.00
  YS02001929YS02001926    1.00   0.00  0.04  0.00  0.96  0.00  0.00  0.00  0.75  0.00
  YS02001920YS02001918    1.00   0.00  0.01  0.00  0.99  0.00  0.00  0.00  0.00  0.00
  YS02001629YS02163301    1.00   0.04  0.00  0.00  0.95  0.00  0.00  0.00  0.00  0.00
  YS02001619YS02001622    1.00   0.04  0.00  0.00  0.96  0.00  0.00  0.00  0.00  0.00
  YS02001622YS02001625    1.00   0.04  0.00  0.00  0.96  0.00  0.00  0.00  0.08  0.00
  YS02001625YS02001629    1.00   0.04  0.02  0.00  0.93  0.00  0.01  0.00  0.00  0.00
  YS02163301YS02001633    1.00   0.00  0.04  0.00  0.96  0.00  0.00  0.00  0.00  0.00
  YS02163601YS02164001    1.00   0.00  0.03  0.00  0.97  0.00  0.00  0.00  0.00  0.00
  YS02164001YS02001641    1.00   0.01  0.02  0.00  0.97  0.00  0.00  0.00  0.06  0.00
  YS02001641YS02001644    1.00   0.00  0.01  0.00  0.99  0.00  0.00  0.00  0.00  0.00
  YS02001647YS02001649    1.00   0.00  0.05  0.00  0.95  0.00  0.00  0.00  0.01  0.00
  YS02006553YS02006556    1.00   0.02  0.00  0.00  0.98  0.00  0.00  0.00  0.03  0.00
  YS02006556YS02006558    1.00   0.00  0.00  0.00  1.00  0.00  0.00  0.00  0.00  0.00
  YSB6556YSB1171          1.00   0.02  0.01  0.00  0.96  0.00  0.00  0.00  0.00  0.00
  YS02001907YS02006553    1.00   0.00  0.01  0.00  0.98  0.00  0.00  0.00  0.00  0.00
  YS02006558YS02006561    1.00   0.05  0.00  0.00  0.21  0.73  0.00  0.00  0.45  0.00
  YS02001633YS02163601    1.00   0.00  0.01  0.00  0.99  0.00  0.00  0.00  0.16  0.00
  YS02001644YS02001647    1.00   0.00  0.05  0.00  0.95  0.00  0.00  0.00  0.00  0.00
  YS02001745YS02001748    1.00   0.00  0.00  0.00  0.89  0.01  0.00  0.10  0.04  0.00
  YS02001748YS02001751    1.00   0.00  0.00  0.00  0.98  0.02  0.00  0.00  0.15  0.00
  YS02001751YS02001754    1.00   0.00  0.00  0.00  0.94  0.00  0.00  0.06  0.02  0.00
  YS02001754YS02001757    1.00   0.00  0.00  0.00  0.99  0.01  0.00  0.00  0.21  0.00
  YS02001882YS02001884    1.00   0.04  0.00  0.00  0.96  0.00  0.00  0.00  0.00  0.00
  YS02001884YS02001887    1.00   0.02  0.01  0.00  0.97  0.00  0.00  0.00  0.00  0.00
  YS02001890YS02001895    1.00   0.00  0.04  0.00  0.95  0.00  0.00  0.00  0.00  0.00
  YS02001895YS02001898    1.00   0.05  0.00  0.00  0.94  0.00  0.01  0.00  0.00  0.00
  YS02001898YS02001901    1.00   0.05  0.00  0.00  0.95  0.00  0.00  0.00  0.03  0.00
  YS02001901YS02001904    1.00   0.05  0.00  0.00  0.95  0.00  0.00  0.00  0.00  0.00
  YS02001904YS02001907    1.00   0.00  0.04  0.00  0.95  0.00  0.00  0.00  0.00  0.00
  YS02001887YS02001890    1.00   0.00  0.00  0.00  0.98  0.00  0.02  0.00  0.00  0.00
  YS02001652YS02001649    1.00   0.00  0.00  0.00  1.00  0.00  0.00  0.00  0.19  0.00
  YS02001655YS02001652    1.00   0.00  0.00  0.00  0.94  0.00  0.00  0.06  0.03  0.00
  YS02001658YS02001655    1.00   0.00  0.04  0.00  0.93  0.03  0.00  0.00  0.13  0.00
  YS02001661YS02001658    1.00   0.04  0.00  0.00  0.89  0.07  0.00  0.00  0.09  0.00
  YS02001664YS02001661    1.00   0.04  0.00  0.00  0.87  0.09  0.00  0.00  0.22  0.00
  YSB1154YSB6556          1.00   0.04  0.00  0.00  0.96  0.00  0.00  0.00  0.02  0.00
  YSB1174YSB1171          1.00   0.02  0.01  0.00  0.97  0.00  0.00  0.00  0.00  0.00
  YSB1171HS02004479       1.00   0.02  0.00  0.00  0.98  0.00  0.00  0.00  0.11  0.00
  HS02004881HS02006253    1.00   0.02  0.00  0.00  0.92  0.00  0.00  0.05  0.74  0.00
  YS02001793JiankangQianchi    1.00   0.00  0.00  0.00  0.69  0.31  0.00  0.00  0.12  0.00
  YS02001757CaochengTiaoxuchi    1.00   0.00  0.07  0.00  0.91  0.02  0.00  0.00  0.00  0.00
  WSF200WS02003060        1.00   0.00  0.07  0.00  0.01  0.92  0.00  0.00  0.01  0.00
  1                       1.00   0.00  0.00  0.00  0.00  1.00  0.00  0.00  0.17  0.00
  2                       1.00   0.82  0.00  0.00  0.00  0.18  0.00  0.00  0.02  0.00
  3                       1.00   0.05  0.00  0.00  0.00  0.95  0.00  0.00  0.00  0.00
  4                       1.00   1.00  0.00  0.00  0.00  0.00  0.00  0.00  0.00  0.00
  
  
  *************************
  Conduit Surcharge Summary
  *************************
  
  ----------------------------------------------------------------------------
                                                           Hours        Hours 
                         --------- Hours Full --------   Above Full   Capacity
  Conduit                Both Ends  Upstream  Dnstream   Normal Flow   Limited
  ----------------------------------------------------------------------------
  WS02006229WS02006228        1.57      1.62      1.57      5.78         1.57
  WS02006256WS02006235        5.91      5.91      6.62      4.63         0.01
  WS02006249WS02006248        0.01      0.01      0.01      5.69         0.01
  WS02006247WS02006245        0.03      0.06      0.03      5.75         0.03
  WS02006245WS02006243        0.08      0.08      0.30      0.01         0.01
  WS02006243WS02006242        0.37      0.37      0.96      0.01         0.01
  WS02006242WS02006240        0.82      0.82      1.08      0.01         0.01
  WS02006240WS02006239        0.87      0.87      0.96      0.01         0.01
  WS02006239WS02006238        1.12      1.12      1.19      0.01         0.01
  WS02006238WS02006235        1.17      1.17      1.26      0.01         0.01
  WS02006235WS02006234        0.99      0.99      1.13      5.93         0.01
  WS02006234WS02006232        1.08      1.08      1.37      0.01         0.01
  WS02006232WS02006231        0.82      0.82      1.37      0.01         0.01
  WS02006231WS02006230        0.68      0.68      0.87      5.91         0.01
  WS02006230WS02006229        2.08      5.34      2.08      6.01         2.08
  WS02006228WS02006109        1.59      1.77      1.59      5.84         1.59
  WS02006116WS02004401        0.28      0.28      0.29      0.20         0.21
  WS02006115WS02006116        0.11      0.11      0.12      0.04         0.04
  WS02006112WS02006115        0.09      0.09      1.19      0.01         0.01
  WS02006111WS02006112        0.01      0.01      5.72      0.01         0.01
  WS02006110WS02006113        0.01      0.01      1.67      0.01         0.01
  WS02006109WS02006110        1.06      1.06      1.77      1.07         0.01
  WS02004411WS02004412        0.01      0.01      0.01      0.25         0.01
  WS02004401WS02004402        0.29      0.29      0.34      0.01         0.01
  WS02004410WS02004411        0.01      0.01      0.01      0.18         0.01
  WS02004409WS02004410        0.01      0.01      0.01      0.06         0.01
  WS02004406WS02004407        0.01      0.01      0.57      0.01         0.01
  WS02004405WS02004406        0.57      0.66      0.57      1.13         0.57
  WS02004404WS02004405        0.66      0.74      0.66      5.89         0.66
  WS02004403WS02004404        0.35      0.35      0.74      0.01         0.01
  WS02004402WS02004403        0.34      0.34      0.35      0.27         0.28
  WS02003072WS02003073        0.01      0.01      0.01      1.47         0.01
  HS02004876HS02004881        0.01      0.01      0.01      0.17         0.01
  HS02004785HS02004788        0.01      0.01      0.01      0.10         0.01
  HS02004480HS02004478        0.01      0.01      0.01      0.52         0.01
  YS02001759YS02001757        5.54      5.54      5.62      0.01         0.01
  YS02001762YS02001759        5.51      5.51      5.54      0.01         0.01
  YS02001765YS02001762        5.49      5.49      5.51      0.01         0.01
  YS02001770YS02001767        5.46      5.47      5.47      0.31         0.75
  YS02001774YS02001770        5.45      5.45      5.50      0.01         0.01
  YS02001779YS02001774        5.28      5.28      5.50      0.01         0.01
  YS02001649YS02001757        5.52      5.52      5.62      0.01         0.01
  YS02001767YS02001765        5.47      5.47      5.49      0.01         0.01
  YS02006561YS02001783        0.91      0.91      1.44      0.01         0.01
  YS02001783YS02001784        1.44      1.44      1.50      1.34         1.21
  YS02001784YS02001785        1.44      1.50      1.44      2.22         1.43
  YS02001788YS02001790        1.43      1.43      2.84      0.01         0.01
  YS02001790YS02001791        2.84      2.84      2.97      0.75         0.75
  YS02001791YS02001793        2.97      2.97      3.24      0.01         0.01
  YS02001910YS02001907        1.21      1.21      1.66      0.01         0.01
  YS02001786YS02001788        1.43      1.44      1.43      1.85         1.43
  YS02001915YS02001910        1.02      1.02      1.21      0.01         0.01
  YS02001918YS02001915        0.78      0.78      1.02      0.01         0.01
  YS02001923YS02001920        0.61      0.61      0.82      0.01         0.01
  YS02001920YS02001918        0.78      0.78      0.82      0.01         0.01
  YS02001629YS02163301        5.45      5.45      5.46      0.01         0.01
  YS02001619YS02001622        5.14      5.14      5.16      0.01         0.01
  YS02001622YS02001625        5.16      5.16      5.34      0.01         0.01
  YS02001625YS02001629        5.15      5.15      5.34      0.01         0.01
  YS02163301YS02001633        5.46      5.46      5.49      0.01         0.01
  YS02163601YS02164001        5.49      5.49      5.52      0.01         0.01
  YS02164001YS02001641        5.49      5.49      5.50      0.01         0.02
  YS02001641YS02001644        5.50      5.50      5.50      1.49         1.44
  YS02001647YS02001649        5.30      5.30      5.52      0.01         0.01
  YS02006553YS02006556        1.41      1.41      1.72      0.01         0.01
  YS02006556YS02006558        1.55      1.55      1.79      0.01         0.01
  YS02001907YS02006553        2.23      2.23      2.45      0.01         0.01
  YS02006558YS02006561        1.12      1.37      1.12      2.09         1.12
  YS02001633YS02163601        5.48      5.48      5.52      0.01         0.01
  YS02001644YS02001647        5.30      5.30      5.50      0.01         0.01
  YS02001745YS02001748        0.01      0.01      5.03      0.01         0.01
  YS02001748YS02001751        5.05      5.05      5.13      0.01         0.01
  YS02001751YS02001754        5.13      5.13      5.29      0.01         0.01
  YS02001754YS02001757        5.30      5.30      5.62      0.01         0.01
  YS02001882YS02001884        1.03      1.03      1.06      0.01         0.01
  YS02001884YS02001887        1.11      1.11      1.14      0.01         0.01
  YS02001890YS02001895        1.00      1.00      1.23      0.01         0.01
  YS02001895YS02001898        0.99      0.99      1.00      0.01         0.01
  YS02001898YS02001901        1.01      1.01      1.11      0.01         0.01
  YS02001901YS02001904        1.09      1.09      1.11      0.01         0.01
  YS02001904YS02001907        1.09      1.09      1.76      0.01         0.01
  YS02001887YS02001890        1.17      1.17      1.20      0.07         0.01
  YS02001652YS02001649        5.31      5.31      5.52      0.01         0.01
  YS02001655YS02001652        5.15      5.15      5.30      0.01         0.01
  YS02001658YS02001655        5.05      5.05      5.15      0.01         0.01
  YS02001661YS02001658        0.25      0.25      5.05      0.01         0.02
  YS02001664YS02001661        0.01      0.01      1.31      0.01         0.01
  YS02001793JiankangQianchi        3.17      3.17      4.10      0.01         0.01
  YS02001757CaochengTiaoxuchi        4.84      4.84      5.62      0.01         0.01
  3                           0.01      0.01      0.01      0.01         0.01
  
  
  ***************
  Pumping Summary
  ***************
  
  ---------------------------------------------------------------------------------------------------------
                                                  Min       Avg       Max     Total     Power    % Time Off
                        Percent   Number of      Flow      Flow      Flow    Volume     Usage    Pump Curve
  Pump                 Utilized   Start-Ups       LPS       LPS       LPS  10^6 ltr     Kw-hr    Low   High
  ---------------------------------------------------------------------------------------------------------
  CC-Pump-1               74.41           1      0.00    199.04    200.00     4.162      4.75    0.0   10.5
  CC-Pump-2                0.00           0      0.00      0.00      0.00     0.000      0.00    0.0    0.0
  JK-Pump-1              100.00           1      0.00    250.62    300.00     5.636     48.57    0.0    0.0
  JK-Pump-2                4.26           1      0.00    218.52    300.00     0.090      1.43    0.0    0.0
  XR-Pump-1                4.26           1      0.00     87.15     95.00     0.086      1.10    0.0    0.0
  XR-Pump-2               36.17           1      0.00     88.25     95.00     0.941      6.55    0.0    0.0
  XR-Pump-3                0.00           0      0.00      0.00      0.00     0.000      0.00    0.0    0.0
  XR-Pump-4                4.26           1      0.00     87.15     95.00     0.086      1.10    0.0    0.0
  

  Analysis begun on:  Thu Jan  6 11:39:38 2022
  Analysis ended on:  Thu Jan  6 11:39:41 2022
  Total elapsed time: 00:00:03