
  EPA STORM WATER MANAGEMENT MODEL - VERSION 5.1 (Build 5.3.0.dev0)
  --------------------------------------------------------------

  WARNING 04: minimum elevation drop used for Conduit WS02004404WS02004405
  WARNING 03: negative offset ignored for Link YS02001904YS02001907
  
  *********************************************************
  NOTE: The summary statistics displayed in this report are
  based on results found at every computational time step,  
  not just on results from each reporting time step.
  *********************************************************
  
  ****************
  Analysis Options
  ****************
  Flow Units ............... LPS
  Process Models:
    Rainfall/Runoff ........ YES
    RDII ................... NO
    Snowmelt ............... NO
    Groundwater ............ NO
    Flow Routing ........... YES
    Ponding Allowed ........ NO
    Water Quality .......... YES
  Infiltration Method ...... HORTON
  Flow Routing Method ...... DYNWAVE
  Surcharge Method ......... EXTRAN
  Starting Date ............ 08/28/2015 08:00:00
  Ending Date .............. 08/28/2015 16:00:00
  Antecedent Dry Days ...... 8.0
  Report Time Step ......... 00:01:00
  Wet Time Step ............ 00:01:00
  Dry Time Step ............ 00:01:00
  Routing Time Step ........ 5.00 sec
  Variable Time Step ....... YES
  Maximum Trials ........... 8
  Number of Threads ........ 4
  Head Tolerance ........... 0.001500 m
  
  
  **************************        Volume         Depth
  Runoff Quantity Continuity     hectare-m            mm
  **************************     ---------       -------
  Total Precipitation ......         9.842        21.548
  Evaporation Loss .........         0.000         0.000
  Infiltration Loss ........         1.344         2.943
  Surface Runoff ...........         7.413        16.231
  Final Storage ............         1.086         2.378
  Continuity Error (%) .....        -0.015
  
  
  **************************           COD            SS            TN            TP         NH4-N
  Runoff Quality Continuity             kg            kg            kg            kg            kg
  **************************    ----------    ----------    ----------    ----------    ----------
  Initial Buildup ..........     41378.656     70582.865      1804.177       168.684      1032.807
  Surface Buildup ..........        42.775        94.821         2.617         0.232         1.470
  Wet Deposition ...........         0.000         0.000         0.000         0.000         0.000
  Sweeping Removal .........         0.000         0.000         0.000         0.000         0.000
  Infiltration Loss ........       160.528       313.477         3.147         0.227         1.515
  BMP Removal ..............         0.000         0.000         0.000         0.000         0.000
  Surface Runoff ...........      8339.300     16295.421       162.279        11.413        77.744
  Remaining Buildup ........     32918.402     54062.557      1641.300       157.271       954.985
  Continuity Error (%) .....         0.008         0.009         0.004         0.003         0.003
  
  
  **************************        Volume        Volume
  Flow Routing Continuity        hectare-m      10^6 ltr
  **************************     ---------     ---------
  Dry Weather Inflow .......         0.630         6.296
  Wet Weather Inflow .......         7.412        74.116
  Groundwater Inflow .......         0.000         0.000
  RDII Inflow ..............         0.000         0.000
  External Inflow ..........         0.105         1.045
  External Outflow .........         2.529        25.290
  Flooding Loss ............         5.415        54.149
  Evaporation Loss .........         0.000         0.000
  Exfiltration Loss ........         0.000         0.000
  Initial Stored Volume ....         0.076         0.761
  Final Stored Volume ......         0.606         6.057
  Continuity Error (%) .....        -3.988
  
  
  **************************           COD            SS            TN            TP         NH4-N
  Quality Routing Continuity            kg            kg            kg            kg            kg
  **************************    ----------    ----------    ----------    ----------    ----------
  Dry Weather Inflow .......      1573.993      2518.389       151.103        18.888        94.440
  Wet Weather Inflow .......      8338.255     16293.588       162.256        11.411        77.733
  Groundwater Inflow .......         0.000         0.000         0.000         0.000         0.000
  RDII Inflow ..............         0.000         0.000         0.000         0.000         0.000
  External Inflow ..........       187.321       299.713        17.983         2.248        11.239
  External Outflow .........      2871.973      5317.999       130.389        14.260        75.965
  Flooding Loss ............      6347.616     12246.198       169.202        15.166        89.700
  Exfiltration Loss ........         0.000         0.000         0.000         0.000         0.000
  Mass Reacted .............         0.000         0.000         0.000         0.000         0.000
  Initial Stored Mass ......         0.000         0.000         0.000         0.000         0.000
  Final Stored Mass ........       549.658       986.373        22.304         2.311        12.746
  Continuity Error (%) .....         3.271         2.936         2.851         2.490         2.727
  
  
  *************************
  Highest Continuity Errors
  *************************
  Node JK-storage (-24.56%)
  Node HS02004842 (8.58%)
  Node YS02001884 (6.14%)
  Node WS02003059 (4.26%)
  Node HS02004817 (1.68%)
  
  
  ***************************
  Time-Step Critical Elements
  ***************************
  Link WS02006252WS02006251 (94.77%)
  Link WS02006280WS02006229 (1.05%)
  
  
  ********************************
  Highest Flow Instability Indexes
  ********************************
  Link YS02163601YS02164001 (27)
  Link YS02163301YS02001633 (26)
  Link YS02001629YS02163301 (26)
  Link YS02001619YS02001622 (25)
  Link YS02164001YS02001641 (24)
  
  
  *************************
  Routing Time Step Summary
  *************************
  Minimum Time Step           :     0.50 sec
  Average Time Step           :     0.80 sec
  Maximum Time Step           :     5.00 sec
  Percent in Steady State     :    -0.00
  Average Iterations per Step :     3.57
  Percent Not Converging      :    10.47
  
  
  ***************************
  Subcatchment Runoff Summary
  ***************************
  
  ------------------------------------------------------------------------------------------------------------------------------
                            Total      Total      Total      Total     Imperv       Perv      Total       Total     Peak  Runoff
                           Precip      Runon       Evap      Infil     Runoff     Runoff     Runoff      Runoff   Runoff   Coeff
  Subcatchment                 mm         mm         mm         mm         mm         mm         mm    10^6 ltr      LPS
  ------------------------------------------------------------------------------------------------------------------------------
  sub0                      21.55       0.00       0.00       0.73      20.00       0.78      20.78        0.02     4.50   0.964
  sub1                      21.55       0.00       0.00       1.24      19.09       1.13      20.22        0.13    32.23   0.938
  sub2                      21.55       0.00       0.00       5.30      13.49       2.68      16.17        0.15    32.08   0.750
  sub3                      21.55       0.00       0.00       5.62      13.46       2.36      15.81        0.36    71.40   0.734
  sub4                      21.55       0.00       0.00       1.37      18.93       1.00      19.93        0.42    83.41   0.925
  sub5                      21.55       0.00       0.00       0.76      19.95       0.74      20.69        0.23    56.18   0.960
  sub7                      21.55       0.00       0.00       0.97      19.55       0.97      20.52        0.07    17.58   0.952
  sub8                      21.55       0.00       0.00       0.98      19.54       0.96      20.50        0.13    32.63   0.951
  sub9                      21.55       0.00       0.00       0.98      19.54       0.96      20.49        0.10    24.44   0.951
  sub10                     21.55       0.00       0.00       0.88      19.74       0.85      20.59        0.23    55.08   0.955
  sub11                     21.55       0.00       0.00       0.86      19.76       0.86      20.62        0.24    60.05   0.957
  sub12                     21.55       0.00       0.00       1.40      18.70       1.40      20.10        0.18    46.36   0.933
  sub14                     21.55       0.00       0.00       0.98      19.53       0.96      20.49        0.20    48.18   0.951
  sub15                     21.55       0.00       0.00       3.81      15.02       2.65      17.67        0.30    71.05   0.820
  sub16                     21.55       0.00       0.00       3.97      14.40       3.14      17.54        0.18    45.74   0.814
  sub17                     21.55       0.00       0.00       3.87      14.61       3.03      17.64        0.15    37.41   0.819
  sub22                     21.55       0.00       0.00       5.73      12.24       3.53      15.78        1.00   226.89   0.732
  sub23                     21.55       0.00       0.00       4.71      13.53       3.26      16.79        0.80   189.38   0.779
  sub60                     21.55       0.00       0.00       2.00      16.94       0.58      17.53        5.31   612.58   0.813
  sub61                     21.55       0.00       0.00       2.84      16.70       0.83      17.53        5.40   714.60   0.813
  sub62                     21.55       0.00       0.00       1.19      18.31       0.54      18.85        5.79   737.67   0.875
  sub63                     21.55       0.00       0.00       5.21      14.47       1.04      15.51        4.70   650.38   0.720
  sub64                     21.55       0.00       0.00       2.61      16.30       0.62      16.92        5.14   587.11   0.785
  sub65                     21.55       0.00       0.00       2.22      16.62       0.58      17.20        5.29   597.89   0.798
  sub66                     21.55       0.00       0.00       5.50      13.84       0.75      14.59        4.47   529.66   0.677
  sub67                     21.55       0.00       0.00       1.11      18.88       0.61      19.49        6.01   876.75   0.904
  sub68                     21.55       0.00       0.00       2.22      17.45       0.80      18.25        5.61   771.43   0.847
  sub69                     21.55       0.00       0.00       2.23      17.71       1.00      18.71        4.37   699.62   0.868
  sub70                     21.55      19.10       0.00       9.65      25.26       4.17      29.44        6.74   795.17   0.724
  sub71                     21.55       0.00       0.00       1.22      18.03       0.51      18.54        4.38   529.67   0.860
  sub72                     21.55       0.00       0.00       1.19      15.66       0.32      15.98        3.26   302.86   0.742
  1                         21.55      28.66       0.00       1.40      30.77      10.90      41.67        9.79   911.30   0.830
  2                         21.55       0.00       0.00       3.09       5.24       4.96      10.21        4.08   427.34   0.474
  
  
  ****************************
  Subcatchment Washoff Summary
  ****************************
  
  ------------------------------------------------------------------------------------------
                                 COD            SS            TN            TP         NH4-N
  Subcatchment                    kg            kg            kg            kg            kg
  ------------------------------------------------------------------------------------------
  sub0                         4.910         9.631         0.090         0.008         0.044
  sub1                        21.579        43.931         0.417         0.030         0.202
  sub2                        15.221        30.619         0.318         0.022         0.148
  sub3                        37.583        75.138         0.771         0.054         0.360
  sub4                        50.741       105.371         1.014         0.064         0.490
  sub5                        48.899        97.783         0.915         0.071         0.448
  sub7                        10.739        22.113         0.209         0.014         0.102
  sub8                        16.007        33.844         0.323         0.020         0.156
  sub9                        13.792        28.712         0.273         0.018         0.132
  sub10                       40.111        81.340         0.765         0.056         0.373
  sub11                       38.626        79.169         0.748         0.053         0.364
  sub12                       33.455        67.156         0.634         0.049         0.308
  sub14                       29.621        61.029         0.577         0.040         0.281
  sub15                       42.845        85.565         0.841         0.063         0.400
  sub16                       27.802        55.347         0.542         0.041         0.258
  sub17                       25.535        50.345         0.488         0.039         0.233
  sub22                      144.041       283.993         2.779         0.214         1.316
  sub23                       79.481       161.827         1.679         0.114         0.781
  sub60                      529.635      1042.482        10.454         0.668         5.038
  sub61                      657.093      1284.342        12.354         0.874         5.984
  sub62                      661.150      1311.775        12.924         0.851         6.243
  sub63                      496.956       958.931         9.849         0.712         4.628
  sub64                      685.929      1303.954        12.740         0.951         6.130
  sub65                      698.533      1332.757        13.045         0.958         6.283
  sub66                      396.610       762.216         7.964         0.538         3.757
  sub67                      972.520      1900.875        17.961         1.355         8.742
  sub68                      708.816      1395.839        13.648         0.952         6.572
  sub69                      626.396      1240.061        11.947         0.865         5.762
  sub70                     1150.131      2271.998        23.548         1.692        11.206
  sub71                      435.861       874.417         8.851         0.534         4.258
  sub72                      384.143       721.323         7.174         0.506         3.467
  1                          928.819      1844.395        19.210         1.380         9.068
  2                          102.247       189.202         2.723         0.167         1.178
  ------------------------------------------------------------------------------------------
  System                   10115.827     19807.479       197.774        13.970        94.713
  
  
  ******************
  Node Depth Summary
  ******************
  
  ---------------------------------------------------------------------------------
                                 Average  Maximum  Maximum  Time of Max    Reported
                                   Depth    Depth      HGL   Occurrence   Max Depth
  Node                 Type       Meters   Meters   Meters  days hr:min      Meters
  ---------------------------------------------------------------------------------
  WS02001211           JUNCTION     0.29     0.38     5.21     0  02:05        0.38
  WS02001212           JUNCTION     0.07     0.19     5.26     0  02:04        0.19
  WS02001213           JUNCTION     0.36     0.55     5.31     0  02:04        0.55
  WS02003069           JUNCTION     0.21     0.43     5.01     0  02:03        0.43
  WS02003072           JUNCTION     0.27     0.50     4.87     0  02:04        0.50
  WS02003073           JUNCTION     0.15     0.30     4.36     0  02:05        0.30
  WS02003060           JUNCTION     0.19     0.38     5.31     0  02:03        0.38
  WS02003066           JUNCTION     0.17     0.32     5.87     0  02:02        0.32
  WS02003059           JUNCTION     0.44     0.63     5.32     0  02:03        0.63
  WS02003067           JUNCTION     0.45     0.74     6.06     0  02:02        0.74
  WS02004401           JUNCTION     0.52     0.95     6.95     0  02:00        0.95
  WS02004402           JUNCTION     0.56     0.97     6.93     0  01:59        0.97
  WS02004403           JUNCTION     0.58     0.97     6.90     0  02:00        0.97
  WS02004404           JUNCTION     0.66     1.13     6.98     0  01:52        1.04
  WS02004406           JUNCTION     0.67     1.02     6.85     0  01:58        1.01
  WS02004409           JUNCTION     0.32     0.74     6.51     0  02:01        0.74
  WS02004410           JUNCTION     0.35     0.75     6.47     0  02:01        0.75
  WS02004411           JUNCTION     0.37     0.75     6.43     0  02:01        0.75
  WS02004412           JUNCTION     0.40     0.75     6.39     0  02:01        0.75
  WS02004413           JUNCTION     0.56     0.91     6.38     0  02:02        0.91
  WS02004405           JUNCTION     0.66     1.04     6.89     0  01:55        1.03
  WS02006109           JUNCTION     0.56     1.05     7.67     0  01:57        1.04
  WS02006110           JUNCTION     0.58     0.98     7.56     0  01:56        0.97
  WS02006111           JUNCTION     0.14     0.31     7.02     0  01:58        0.31
  WS02006112           JUNCTION     0.67     1.18     7.06     0  02:06        1.16
  WS02006113           JUNCTION     0.22     0.49     7.38     0  01:58        0.48
  WS02006115           JUNCTION     0.40     0.86     7.00     0  01:59        0.86
  WS02006116           JUNCTION     0.49     0.93     6.97     0  01:59        0.93
  WS02006230           JUNCTION     0.46     1.02     7.76     0  01:57        1.02
  WS02006231           JUNCTION     0.23     0.60     7.72     0  01:57        0.60
  WS02006232           JUNCTION     0.33     0.65     7.69     0  01:58        0.65
  WS02006234           JUNCTION     0.20     0.46     7.62     0  01:58        0.46
  WS02006235           JUNCTION     0.20     0.33     7.49     0  01:59        0.33
  WS02006238           JUNCTION     0.23     0.35     7.50     0  01:59        0.35
  WS02006240           JUNCTION     0.15     0.24     7.53     0  02:00        0.24
  WS02006242           JUNCTION     0.21     0.30     7.57     0  02:00        0.30
  WS02006243           JUNCTION     0.12     0.18     7.60     0  01:59        0.18
  WS02006245           JUNCTION     0.15     0.20     7.69     0  01:58        0.20
  WS02006247           JUNCTION     0.17     0.23     7.73     0  01:58        0.23
  WS02006248           JUNCTION     0.13     0.18     7.77     0  01:57        0.18
  WS02006249           JUNCTION     0.17     0.23     7.83     0  01:57        0.23
  WS02006239           JUNCTION     0.18     0.30     7.51     0  01:59        0.30
  WS02006251           JUNCTION     0.15     0.21     7.88     0  01:56        0.21
  WS02006252           JUNCTION     0.34     0.35     8.59     0  01:29        0.35
  WS02006253           JUNCTION     0.20     0.40     8.04     0  01:56        0.40
  WS02006256           JUNCTION     2.26     2.35     9.28     0  00:00        2.35
  WS02004138           JUNCTION     0.17     0.17     7.42     0  00:00        0.17
  WS02004139           JUNCTION     0.20     0.24     5.15     0  02:05        0.24
  WS02004407           JUNCTION     0.15     0.32     6.64     0  02:00        0.32
  WS02006228           JUNCTION     0.55     1.11     7.76     0  01:57        1.11
  WS02006229           JUNCTION     0.51     1.11     7.80     0  01:57        1.11
  WS02006280           JUNCTION     0.10     0.30     8.57     0  01:57        0.30
  WS02006284           JUNCTION     0.41     0.71     9.10     0  01:57        0.71
  WS02006287           JUNCTION     0.14     0.45     9.41     0  01:56        0.45
  WSF200               JUNCTION     0.14     0.31     5.55     0  02:02        0.31
  HS02004901           JUNCTION     0.16     0.42    10.25     0  01:55        0.42
  HS02004881           JUNCTION     0.01     0.06     9.09     0  01:56        0.06
  HS02004876           JUNCTION     0.06     0.18     9.21     0  01:56        0.18
  HS02004870           JUNCTION     0.03     0.11     9.40     0  01:56        0.11
  HS02004862           JUNCTION     0.03     0.13     9.51     0  01:57        0.13
  HS02004856           JUNCTION     0.09     0.17     9.59     0  01:56        0.17
  HS02004852           JUNCTION     0.02     0.09     9.61     0  01:57        0.09
  HS02004848           JUNCTION     0.02     0.08     9.68     0  01:57        0.08
  HS02004842           JUNCTION     0.35     0.41     9.68     0  01:57        0.41
  HS02004837           JUNCTION     0.04     0.10     9.68     0  01:56        0.10
  HS02004830           JUNCTION     0.05     0.15     9.61     0  01:57        0.15
  HS02004824           JUNCTION     0.04     0.19     9.60     0  01:57        0.19
  HS02004817           JUNCTION     0.48     0.76     9.61     0  01:57        0.76
  HS02004807           JUNCTION     0.16     0.43     9.60     0  01:57        0.43
  HS02004802           JUNCTION     0.20     0.46     9.59     0  01:57        0.46
  HS02004799           JUNCTION     0.17     0.54     9.75     0  01:55        0.54
  HS02004792           JUNCTION     0.06     0.26     9.78     0  01:56        0.26
  HS02004788           JUNCTION     0.04     0.19    10.09     0  01:56        0.19
  HS02004785           JUNCTION     0.07     0.28    10.18     0  01:55        0.28
  HS02004777           JUNCTION     0.18     0.43    10.23     0  01:55        0.43
  HS02004770           JUNCTION     0.15     0.41    10.24     0  01:55        0.41
  HS02004480           JUNCTION     0.12     0.44     9.68     0  01:56        0.44
  HS02004479           JUNCTION     0.16     0.48     9.69     0  01:56        0.48
  HS02004478           JUNCTION     0.10     0.34     9.57     0  01:56        0.34
  YS02001745           JUNCTION     0.82     1.03     8.54     0  02:38        1.03
  YS02001748           JUNCTION     1.23     2.02     9.10     0  01:43        1.45
  YS02001751           JUNCTION     1.42     1.97     8.85     0  01:43        1.63
  YS02001754           JUNCTION     1.68     1.97     8.58     0  01:43        1.88
  YS02001762           JUNCTION     1.88     2.07     8.47     0  02:22        2.07
  YS02001765           JUNCTION     1.83     2.02     8.47     0  02:22        2.01
  YS02001767           JUNCTION     1.79     1.97     8.46     0  02:23        1.97
  YS02001770           JUNCTION     1.79     1.95     8.44     0  02:16        1.95
  YS02001774           JUNCTION     1.85     2.00     8.42     0  02:22        2.00
  YS02001779           JUNCTION     1.58     1.68     8.37     0  01:42        1.68
  YS02001882           JUNCTION     0.78     1.67     8.39     0  01:49        1.66
  YS02001884           JUNCTION     0.88     1.76     8.38     0  01:49        1.75
  YS02001759           JUNCTION     1.92     2.11     8.47     0  02:41        2.11
  YS02001887           JUNCTION     0.96     1.83     8.37     0  02:22        1.82
  YS02001890           JUNCTION     0.98     1.81     8.32     0  01:49        1.81
  YS02001898           JUNCTION     0.74     1.57     8.31     0  01:49        1.57
  YS02001901           JUNCTION     0.86     1.68     8.29     0  01:49        1.68
  YS02001904           JUNCTION     0.84     1.64     8.27     0  01:49        1.64
  YS02001907           JUNCTION     1.17     1.96     8.25     0  01:48        1.96
  YS02001910           JUNCTION     0.97     1.96     8.47     0  01:50        1.79
  YS02001915           JUNCTION     0.77     1.91     8.63     0  01:50        1.62
  YS02001918           JUNCTION     0.50     1.81     8.88     0  01:50        1.33
  YS02001619           JUNCTION     1.37     1.61     8.54     0  01:41        1.50
  YS02001629           JUNCTION     1.73     1.85     8.40     0  01:42        1.84
  YS02001641           JUNCTION     1.82     1.96     8.39     0  01:42        1.93
  YS02001644           JUNCTION     1.82     1.92     8.35     0  01:42        1.92
  YS02001652           JUNCTION     1.69     2.09     8.69     0  01:42        1.87
  YS02001655           JUNCTION     1.45     2.20     9.05     0  01:42        1.65
  YS02001920           JUNCTION     0.60     1.94     8.95     0  01:50        1.42
  YS02001923           JUNCTION     0.41     1.86     9.12     0  01:50        1.20
  YS02001926           JUNCTION     0.43     1.49     8.94     0  01:50        1.10
  YS02001929           JUNCTION     0.28     1.10     8.80     0  01:50        0.94
  YS02001658           JUNCTION     1.17     2.10     9.25     0  01:42        1.41
  YS02001661           JUNCTION     0.93     2.10     9.50     0  01:54        1.19
  YS02001664           JUNCTION     0.43     0.58     8.51     0  02:19        0.58
  YS02001622           JUNCTION     1.39     1.62     8.52     0  01:41        1.51
  YS02001633           JUNCTION     1.82     1.99     8.44     0  01:42        1.94
  YS02001649           JUNCTION     1.88     2.05     8.44     0  01:48        2.05
  YS02001757           JUNCTION     2.01     2.21     8.47     0  02:42        2.21
  YS02001895           JUNCTION     0.74     1.57     8.32     0  01:49        1.57
  YS02001625           JUNCTION     1.68     1.78     8.38     0  01:41        1.78
  YS02163301           JUNCTION     1.76     1.91     8.43     0  01:42        1.88
  YS02163601           JUNCTION     1.87     2.04     8.43     0  01:42        1.98
  YS02164001           JUNCTION     1.81     1.96     8.42     0  01:42        1.91
  YS02001647           JUNCTION     1.66     1.84     8.45     0  01:42        1.79
  YSB1154              JUNCTION     0.30     0.63     9.69     0  01:56        0.63
  YSB6556              JUNCTION     0.20     0.52     9.69     0  01:55        0.52
  YSB1174              JUNCTION     0.25     0.58     9.69     0  01:55        0.58
  YSB1171              JUNCTION     0.46     0.79     9.69     0  01:55        0.79
  YS02006553           JUNCTION     1.17     2.00     8.29     0  02:21        1.96
  YS02006561           JUNCTION     0.45     1.11     7.77     0  02:21        1.08
  YS02006556           JUNCTION     1.14     2.02     8.33     0  02:21        1.93
  YS02006558           JUNCTION     1.18     2.08     8.35     0  02:21        1.98
  YS02001783           JUNCTION     0.68     1.51     7.65     0  02:21        1.46
  YS02001784           JUNCTION     0.68     1.44     7.50     0  02:21        1.40
  YS02001786           JUNCTION     0.58     1.27     7.30     0  02:21        1.24
  YS02001788           JUNCTION     0.47     1.18     7.15     0  02:21        1.10
  YS02001790           JUNCTION     0.55     1.26     6.91     0  02:40        1.26
  YS02001791           JUNCTION     0.45     1.24     6.71     0  02:40        1.24
  YS02001793           JUNCTION     0.53     1.76     6.59     0  02:40        1.76
  WSC                  OUTFALL      0.15     0.30     0.97     0  02:05        0.30
  3                    OUTFALL      0.00     0.00     7.16     0  00:00        0.00
  4                    OUTFALL      0.00     0.00     7.67     0  00:00        0.00
  5                    OUTFALL      0.00     0.00     4.91     0  00:00        0.00
  JK-storage           STORAGE      1.77     5.77     6.57     0  02:40        5.77
  CC-storage           STORAGE      1.22     1.46     8.46     0  02:41        1.46
  XR-storage           STORAGE      7.27     7.72     5.72     0  01:58        7.72
  
  
  *******************
  Node Inflow Summary
  *******************
  
  -------------------------------------------------------------------------------------------------
                                  Maximum  Maximum                  Lateral       Total        Flow
                                  Lateral    Total  Time of Max      Inflow      Inflow     Balance
                                   Inflow   Inflow   Occurrence      Volume      Volume       Error
  Node                 Type           LPS      LPS  days hr:min    10^6 ltr    10^6 ltr     Percent
  -------------------------------------------------------------------------------------------------
  WS02001211           JUNCTION      7.35   111.74     0  02:04       0.212         0.6       1.327
  WS02001212           JUNCTION      0.00   104.46     0  02:04           0       0.396       0.260
  WS02001213           JUNCTION      0.00   104.85     0  02:02           0       0.403       2.328
  WS02003069           JUNCTION      0.32   552.73     0  02:03     0.00922        4.16       0.154
  WS02003072           JUNCTION      0.00   552.70     0  02:04           0        4.15       0.243
  WS02003073           JUNCTION      1.82   554.51     0  02:04      0.0524        4.19       0.212
  WS02003060           JUNCTION     16.53   657.62     0  02:02       0.476        4.57       0.132
  WS02003066           JUNCTION      0.00   641.06     0  02:02           0        4.08       0.047
  WS02003059           JUNCTION      0.00   120.14     0  01:39           0       0.425       4.453
  WS02003067           JUNCTION      0.00   641.00     0  02:02           0        4.08       0.122
  WS02004401           JUNCTION      0.00   642.73     0  02:00           0         4.2       0.287
  WS02004402           JUNCTION      0.00   644.40     0  01:57           0        4.19       0.287
  WS02004403           JUNCTION      0.00   643.21     0  01:58           0        4.18       0.276
  WS02004404           JUNCTION      0.16   642.61     0  01:59     0.00467        4.17       0.227
  WS02004406           JUNCTION      0.00   642.64     0  02:00           0        4.15       0.549
  WS02004409           JUNCTION      0.00   642.37     0  02:00           0        4.13       0.115
  WS02004410           JUNCTION      0.00   641.74     0  02:01           0        4.12       0.160
  WS02004411           JUNCTION      0.00   641.35     0  02:01           0        4.12       0.186
  WS02004412           JUNCTION      0.00   641.13     0  02:01           0        4.11       0.233
  WS02004413           JUNCTION      0.00   641.07     0  02:02           0         4.1       0.402
  WS02004405           JUNCTION      0.04   642.57     0  01:59      0.0011        4.17       0.332
  WS02006109           JUNCTION      1.23   608.96     0  01:57      0.0354        4.11       0.293
  WS02006110           JUNCTION      0.00   608.84     0  01:57           0         4.1       0.266
  WS02006111           JUNCTION      0.00   636.90     0  01:58           0        4.09       0.029
  WS02006112           JUNCTION     37.41   647.33     0  01:56       0.151        4.24       0.379
  WS02006113           JUNCTION      0.00   610.02     0  01:57           0        4.09       0.074
  WS02006115           JUNCTION      0.00   649.25     0  01:56           0        4.22       0.257
  WS02006116           JUNCTION      0.00   645.34     0  01:57           0        4.21       0.163
  WS02006230           JUNCTION     10.28   304.16     0  01:56       0.296        1.62       0.320
  WS02006231           JUNCTION      0.00   303.87     0  01:57           0        1.38       0.161
  WS02006232           JUNCTION      0.00   303.70     0  01:57           0        1.38       0.400
  WS02006234           JUNCTION      0.00   303.65     0  01:58           0        1.38       0.084
  WS02006235           JUNCTION      0.00   633.37     0  01:59           0        8.21       0.037
  WS02006238           JUNCTION      0.00    67.59     0  02:02           0       0.842       0.227
  WS02006240           JUNCTION      0.00    66.74     0  02:01           0       0.834       0.287
  WS02006242           JUNCTION      0.00    66.81     0  01:59           0       0.836       0.442
  WS02006243           JUNCTION      0.00    66.84     0  01:58           0       0.837       0.136
  WS02006245           JUNCTION      0.00    66.85     0  01:58           0       0.839       0.318
  WS02006247           JUNCTION      0.00    66.88     0  01:57           0       0.842       0.264
  WS02006248           JUNCTION      0.00    66.90     0  01:57           0       0.842       0.081
  WS02006249           JUNCTION      0.00    66.93     0  01:56           0       0.846       0.400
  WS02006239           JUNCTION      0.00    67.02     0  02:02           0       0.837       0.330
  WS02006251           JUNCTION      0.08   391.27     0  01:56     0.00222        5.52       0.020
  WS02006252           JUNCTION      0.00   200.00     0  01:29           0         4.7       0.009
  WS02006253           JUNCTION      4.50   191.19     0  01:56      0.0168       0.821       0.300
  WS02006256           JUNCTION      0.00   983.00     0  00:00           0        16.6      -0.006
  WS02004138           JUNCTION      0.00   285.00     0  00:00           0        8.21       0.063
  WS02004139           JUNCTION      0.32   396.89     0  02:05     0.00924        8.79       0.077
  WS02004407           JUNCTION      0.00   642.55     0  01:59           0        4.13       0.054
  WS02006228           JUNCTION      0.00   607.66     0  01:57           0        4.09       0.191
  WS02006229           JUNCTION      0.00   900.69     0  01:57           0        4.88       0.174
  WS02006280           JUNCTION      0.00   900.68     0  01:57           0        4.11       0.002
  WS02006284           JUNCTION      0.10   900.54     0  01:57     0.00275        4.11       0.017
  WS02006287           JUNCTION      0.00   900.37     0  01:57           0        4.11       0.018
  WSF200               JUNCTION      0.00   641.08     0  02:02           0        4.08       0.025
  HS02004901           JUNCTION     45.74    45.74     0  01:53       0.184       0.184       0.966
  HS02004881           JUNCTION     17.58   187.07     0  01:56      0.0691       0.804       0.008
  HS02004876           JUNCTION     32.23   170.13     0  01:56       0.134       0.736       0.073
  HS02004870           JUNCTION     32.63   138.27     0  01:56       0.131       0.602       0.018
  HS02004862           JUNCTION     32.28   106.66     0  01:57       0.156       0.471       0.036
  HS02004856           JUNCTION     24.44    74.43     0  01:56      0.0985       0.316       0.457
  HS02004852           JUNCTION      0.00    50.70     0  01:57           0       0.217       0.025
  HS02004848           JUNCTION     71.40    71.40     0  01:59       0.356       0.356       0.013
  HS02004842           JUNCTION      0.00    22.54     0  02:08           0       0.152       9.382
  HS02004837           JUNCTION     61.43    80.78     0  01:56        0.41       0.548       0.148
  HS02004830           JUNCTION      0.15    80.89     0  01:56     0.00432       0.539       0.230
  HS02004824           JUNCTION     83.46   164.63     0  01:58       0.417       0.955       0.057
  HS02004817           JUNCTION      0.60   167.08     0  01:59      0.0173       0.972       1.712
  HS02004807           JUNCTION     60.05   223.12     0  01:57        0.24         1.2       0.366
  HS02004802           JUNCTION      0.00   222.90     0  01:58           0         1.2       0.325
  HS02004799           JUNCTION     48.18   580.07     0  01:55       0.195        2.53       0.120
  HS02004792           JUNCTION    227.17   532.69     0  01:55           1        2.34       0.017
  HS02004788           JUNCTION     72.72   306.37     0  01:55       0.352        1.33       0.029
  HS02004785           JUNCTION      0.15   233.90     0  01:55     0.00432       0.981       0.050
  HS02004777           JUNCTION      0.03   233.96     0  01:55    0.000864       0.981       0.533
  HS02004770           JUNCTION    189.38   234.62     0  01:54       0.801       0.983       0.314
  HS02004480           JUNCTION      0.00   679.89     0  01:56           0        2.94       0.031
  HS02004479           JUNCTION      0.00   100.04     0  01:55           0       0.419       0.176
  HS02004478           JUNCTION      0.00   900.31     0  01:56           0        4.11       0.007
  YS02001745           JUNCTION    612.58   612.58     0  02:31        5.31        5.31       0.217
  YS02001748           JUNCTION      0.04   612.57     0  02:30      0.0013         5.3       0.436
  YS02001751           JUNCTION      0.01   612.58     0  02:30    0.000317        5.28       0.454
  YS02001754           JUNCTION      0.26   612.84     0  02:30     0.00749        5.26       0.465
  YS02001762           JUNCTION      0.00   412.76     0  01:49           0        2.91       0.724
  YS02001765           JUNCTION      0.00   412.64     0  01:49           0        2.91       0.836
  YS02001767           JUNCTION      0.54   412.81     0  01:49      0.0154        2.94       1.223
  YS02001770           JUNCTION    737.82  1034.36     0  02:38         5.8        7.29       0.428
  YS02001774           JUNCTION      0.00   851.48     0  02:22           0        5.48       0.456
  YS02001779           JUNCTION      0.01   851.37     0  02:23    0.000144        5.45       0.282
  YS02001882           JUNCTION      0.00    24.07     0  07:40           0      0.0557       4.682
  YS02001884           JUNCTION      0.00    47.75     0  01:44           0      0.0982       6.543
  YS02001759           JUNCTION    714.64   901.40     0  01:54         5.4        6.79       0.334
  YS02001887           JUNCTION    877.20   877.23     0  02:13        6.03        6.06       0.139
  YS02001890           JUNCTION      0.00   877.22     0  02:13           0        6.01       0.161
  YS02001898           JUNCTION      0.00   576.31     0  01:49           0        4.84       0.040
  YS02001901           JUNCTION      0.00   575.85     0  01:49           0        4.84       0.161
  YS02001904           JUNCTION      0.00   575.61     0  01:49           0        4.83       0.137
  YS02001907           JUNCTION      0.00  1335.88     0  02:33           0        12.5       0.193
  YS02001910           JUNCTION      0.00   819.48     0  02:33           0         7.7       0.143
  YS02001915           JUNCTION    529.69   819.47     0  02:33        4.38        7.75       0.086
  YS02001918           JUNCTION      0.00   394.13     0  01:50           0         3.4       0.048
  YS02001619           JUNCTION    529.66   529.66     0  02:29        4.47        4.47       0.274
  YS02001629           JUNCTION      0.00   229.38     0  01:39           0        2.02       1.442
  YS02001641           JUNCTION      0.00   434.82     0  01:44           0        5.75       0.365
  YS02001644           JUNCTION    587.15  1847.77     0  02:32        5.14        17.2       0.150
  YS02001652           JUNCTION      0.00   650.46     0  02:19           0        4.64       0.494
  YS02001655           JUNCTION      0.15   650.48     0  02:19     0.00443        4.67       0.539
  YS02001920           JUNCTION      2.87   394.21     0  01:50      0.0827        3.39       0.095
  YS02001923           JUNCTION      0.04   322.16     0  01:51     0.00109        3.28       0.042
  YS02001926           JUNCTION      0.05   303.75     0  02:55      0.0015        3.27       0.095
  YS02001929           JUNCTION    302.86   302.86     0  02:57        3.25        3.26       0.021
  YS02001658           JUNCTION      0.00   650.34     0  02:19           0        4.68       0.485
  YS02001661           JUNCTION      0.00   802.05     0  01:51           0        5.34       0.095
  YS02001664           JUNCTION    650.38   650.38     0  02:17         4.7        5.35       0.128
  YS02001622           JUNCTION      0.00   529.66     0  02:29           0        4.46       0.716
  YS02001633           JUNCTION    598.09   598.09     0  02:32        5.29        6.54       0.491
  YS02001649           JUNCTION      0.00  1340.26     0  02:40           0        9.45       0.389
  YS02001757           JUNCTION      0.00  2179.89     0  01:54           0        12.4       0.746
  YS02001895           JUNCTION      0.00   576.69     0  01:49           0        4.82       0.123
  YS02001625           JUNCTION      0.00   713.47     0  02:31           0        5.16       0.763
  YS02163301           JUNCTION      0.00   209.89     0  01:43           0        2.01       1.199
  YS02163601           JUNCTION      0.11   434.93     0  01:44     0.00317        5.76       0.519
  YS02164001           JUNCTION      0.00   434.53     0  01:43           0        5.74       0.348
  YS02001647           JUNCTION      0.00   846.70     0  03:11           0        7.41       0.382
  YSB1154              JUNCTION     56.18    56.18     0  01:54       0.234       0.235       0.617
  YSB6556              JUNCTION      0.00    55.92     0  01:54           0       0.236       0.537
  YSB1174              JUNCTION     46.36    46.36     0  01:52       0.176       0.176       0.733
  YSB1171              JUNCTION      0.00   100.41     0  01:54           0       0.417       1.543
  YS02006553           JUNCTION      0.00   728.52     0  03:53           0         7.6       0.203
  YS02006561           JUNCTION      0.00  1156.48     0  02:19           0        13.2       0.005
  YS02006556           JUNCTION      0.00   728.61     0  03:53           0        7.61       0.150
  YS02006558           JUNCTION    772.31  1156.51     0  02:19        5.64        13.2       0.041
  YS02001783           JUNCTION      0.00  1156.26     0  02:19           0        13.2       0.019
  YS02001784           JUNCTION      1.06  1157.30     0  02:19      0.0305        13.2       0.029
  YS02001786           JUNCTION      0.06  1157.32     0  02:19     0.00162        13.2       0.029
  YS02001788           JUNCTION      0.07  1157.86     0  02:19     0.00204        13.2       0.017
  YS02001790           JUNCTION      0.15  1170.08     0  02:19     0.00446        13.2       0.029
  YS02001791           JUNCTION      0.00  1277.07     0  02:06           0        13.2       0.001
  YS02001793           JUNCTION      0.00  1222.26     0  02:15           0        13.2       0.001
  WSC                  OUTFALL       0.00   554.42     0  02:05           0        4.19       0.000
  3                    OUTFALL       0.00   633.37     0  01:59           0        7.66       0.000
  4                    OUTFALL       0.00   324.33     0  01:56           0        4.67       0.000
  5                    OUTFALL       0.00   396.86     0  02:05           0        8.78       0.000
  JK-storage           STORAGE       0.00  1244.07     0  02:07           0        13.4     -19.720
  CC-storage           STORAGE       0.00  2180.52     0  01:54           0        8.51       0.766
  XR-storage           STORAGE    1455.87  1455.87     0  02:59        19.6        20.2      -0.000
  
  
  **********************
  Node Surcharge Summary
  **********************
  
  Surcharging occurs when water rises above the top of the highest conduit.
  ---------------------------------------------------------------------
                                               Max. Height   Min. Depth
                                   Hours       Above Crown    Below Rim
  Node                 Type      Surcharged         Meters       Meters
  ---------------------------------------------------------------------
  WS02004404           JUNCTION        0.29          0.128        2.652
  WS02004406           JUNCTION        0.16          0.016        2.434
  WS02004405           JUNCTION        0.23          0.035        2.765
  WS02006109           JUNCTION        1.03          0.231        1.589
  WS02006110           JUNCTION        0.40          0.066        1.784
  WS02006112           JUNCTION        0.66          0.182        1.498
  WS02006256           JUNCTION        6.67          2.050        0.000
  WS02006228           JUNCTION        1.01          0.279        1.921
  HS02004817           JUNCTION        0.45          0.061        1.679
  YS02001745           JUNCTION        0.77          0.027        1.323
  YS02001748           JUNCTION        6.28          0.943        0.247
  YS02001751           JUNCTION        6.32          0.970        0.230
  YS02001754           JUNCTION        6.36          0.925        0.225
  YS02001762           JUNCTION        6.42          1.071        0.079
  YS02001765           JUNCTION        6.41          1.017        0.083
  YS02001767           JUNCTION        6.41          0.969        0.061
  YS02001770           JUNCTION        6.40          0.920        0.000
  YS02001774           JUNCTION        6.42          1.002        0.048
  YS02001779           JUNCTION        6.36          0.680        0.000
  YS02001882           JUNCTION        2.15          0.671        0.159
  YS02001884           JUNCTION        2.17          0.701        0.169
  YS02001759           JUNCTION        6.43          1.108        0.102
  YS02001887           JUNCTION        2.22          0.780        0.170
  YS02001890           JUNCTION        2.25          0.760        0.000
  YS02001898           JUNCTION        2.12          0.542        0.198
  YS02001901           JUNCTION        2.19          0.681        0.189
  YS02001904           JUNCTION        2.18          0.640        0.210
  YS02001907           JUNCTION        2.80          0.950        0.000
  YS02001910           JUNCTION        2.29          0.964        0.136
  YS02001915           JUNCTION        2.14          0.910        0.090
  YS02001918           JUNCTION        1.98          0.810        0.000
  YS02001619           JUNCTION        6.32          0.610        0.000
  YS02001629           JUNCTION        6.32          0.470        0.000
  YS02001641           JUNCTION        6.42          0.958        0.142
  YS02001644           JUNCTION        6.42          0.920        0.000
  YS02001652           JUNCTION        6.38          1.064        0.066
  YS02001655           JUNCTION        6.33          1.200        0.000
  YS02001920           JUNCTION        2.01          0.944        0.196
  YS02001923           JUNCTION        0.01          0.651        0.169
  YS02001926           JUNCTION        0.01          0.492        0.408
  YS02001929           JUNCTION        0.01          0.105        0.675
  YS02001658           JUNCTION        6.29          1.104        0.196
  YS02001661           JUNCTION        1.17          1.028        0.362
  YS02001622           JUNCTION        6.32          0.620        0.000
  YS02001633           JUNCTION        6.40          0.968        0.092
  YS02001649           JUNCTION        6.42          1.050        0.000
  YS02001757           JUNCTION        6.46          1.206        0.004
  YS02001895           JUNCTION        2.13          0.571        0.179
  YS02001625           JUNCTION        6.38          0.780        0.000
  YS02163301           JUNCTION        6.39          0.913        0.117
  YS02163601           JUNCTION        6.42          1.037        0.043
  YS02164001           JUNCTION        6.41          0.962        0.138
  YS02001647           JUNCTION        6.38          0.836        0.064
  YS02006553           JUNCTION        2.84          1.003        0.187
  YS02006561           JUNCTION        2.00          0.313        0.837
  YS02006556           JUNCTION        2.48          0.980        0.370
  YS02006558           JUNCTION        2.45          0.980        0.420
  YS02001783           JUNCTION        2.24          0.708        0.892
  YS02001784           JUNCTION        2.21          0.637        0.853
  YS02001786           JUNCTION        2.10          0.474        0.956
  YS02001788           JUNCTION        1.49          0.378        1.102
  YS02001790           JUNCTION        1.59          0.461        0.696
  YS02001791           JUNCTION        1.59          0.436        1.484
  YS02001793           JUNCTION        1.71          0.760        1.840
  
  
  *********************
  Node Flooding Summary
  *********************
  
  Flooding refers to all water that overflows a node, whether it ponds or not.
  --------------------------------------------------------------------------
                                                             Total   Maximum
                                 Maximum   Time of Max       Flood    Ponded
                        Hours       Rate    Occurrence      Volume     Depth
  Node                 Flooded       LPS   days hr:min    10^6 ltr    Meters
  --------------------------------------------------------------------------
  WS02006256              6.07    978.40      0  00:00      10.096     0.000
  YS02001770              0.80    183.19      0  02:38       0.361     0.000
  YS02001779              3.92    851.27      0  02:23       5.435     0.000
  YS02001890              1.35    360.82      0  02:13       1.179     0.000
  YS02001907              1.86   1093.87      0  02:30       4.888     0.000
  YS02001918              0.01     12.32      0  01:50       0.000     0.000
  YS02001619              0.01     42.00      0  01:41       0.000     0.000
  YS02001629              0.01     13.18      0  01:42       0.000     0.000
  YS02001644              6.22   1847.77      0  02:32      16.151     0.000
  YS02001655              0.01     15.99      0  01:42       0.000     0.000
  YS02001622              0.01      1.26      0  01:41       0.000     0.000
  YS02001649              0.95    493.56      0  02:40       1.094     0.000
  YS02001625              2.59    713.47      0  02:31       3.846     0.000
  XR-storage              6.03   1170.87      0  02:59      11.096     0.000
  
  
  **********************
  Storage Volume Summary
  **********************
  
  --------------------------------------------------------------------------------------------------
                         Average     Avg  Evap Exfil       Maximum     Max    Time of Max    Maximum
                          Volume    Pcnt  Pcnt  Pcnt        Volume    Pcnt     Occurrence    Outflow
  Storage Unit           1000 m3    Full  Loss  Loss       1000 m3    Full    days hr:min        LPS
  --------------------------------------------------------------------------------------------------
  JK-storage               0.089      31     0     0         0.290      99       0  02:40     983.00
  CC-storage               3.408      22     0     0         4.079      26       0  02:41     200.00
  XR-storage               0.873      94     0     0         0.926     100       0  01:58     285.00
  
  
  ***********************
  Outfall Loading Summary
  ***********************
  
  ---------------------------------------------------------------------------------------------------------------------------------
                         Flow       Avg       Max       Total         Total         Total         Total         Total         Total
                         Freq      Flow      Flow      Volume           COD            SS            TN            TP         NH4-N
  Outfall Node           Pcnt       LPS       LPS    10^6 ltr            kg            kg            kg            kg            kg
  ---------------------------------------------------------------------------------------------------------------------------------
  WSC                   99.99    169.59    554.42       4.186       590.762      1108.894        24.860         2.676        14.325
  3                     99.99    310.88    633.37       7.657       547.424      1087.206        10.944         0.807         5.360
  4                     99.99    190.60    324.33       4.672       532.302      1046.292        10.347         0.722         5.003
  5                    100.00    307.73    396.86       8.776      1201.655      2075.884        84.252        10.056        51.286
  ---------------------------------------------------------------------------------------------------------------------------------
  System                99.99    978.80   1881.65      25.290      2872.143      5318.276       130.403        14.261        75.974
  
  
  ********************
  Link Flow Summary
  ********************
  
  -----------------------------------------------------------------------------
                                 Maximum  Time of Max   Maximum    Max/    Max/
                                  |Flow|   Occurrence   |Veloc|    Full    Full
  Link                 Type          LPS  days hr:min     m/sec    Flow   Depth
  -----------------------------------------------------------------------------
  WS02003066WSF200     CONDUIT    641.08     0  02:02      3.02    0.11    0.24
  WS02006287WS02006284 CONDUIT    900.44     0  01:57      2.60    0.42    0.45
  WS02006284WS02006280 CONDUIT    900.68     0  01:57      2.83    0.38    0.43
  WS02006280WS02006229 CONDUIT    900.69     0  01:57      4.60    0.19    0.30
  WS02006229WS02006228 CONDUIT    607.66     0  01:57      1.21    2.01    1.00
  WS02006256WS02006235 CONDUIT    289.81     0  02:44      4.46    3.07    1.00
  WS02006253WS02006251 CONDUIT    191.19     0  01:56      1.06    0.57    0.48
  WS02006252WS02006251 CONDUIT    201.11     0  01:29      1.97    0.74    0.76
  WS02006251WS02006249 CONDUIT     66.93     0  01:56      0.64    0.19    0.32
  WS02006249WS02006248 CONDUIT     66.90     0  01:57      0.74    0.37    0.28
  WS02006248WS02006247 CONDUIT     66.88     0  01:57      0.72    0.15    0.29
  WS02006247WS02006245 CONDUIT     66.85     0  01:58      0.67    0.53    0.31
  WS02006245WS02006243 CONDUIT     66.84     0  01:58      0.81    0.20    0.27
  WS02006243WS02006242 CONDUIT     66.81     0  01:59      0.64    0.14    0.32
  WS02006242WS02006240 CONDUIT     66.74     0  02:01      0.51    0.27    0.38
  WS02006240WS02006239 CONDUIT     67.02     0  02:02      0.63    0.21    0.35
  WS02006239WS02006238 CONDUIT     67.59     0  02:02      0.45    0.22    0.45
  WS02006238WS02006235 CONDUIT     68.01     0  02:02      1.17    0.15    0.49
  WS02006235WS02006234 CONDUIT    303.66     0  01:58      1.37    3.20    0.56
  WS02006234WS02006232 CONDUIT    303.65     0  01:58      0.93    0.61    0.79
  WS02006232WS02006231 CONDUIT    303.70     0  01:57      0.84    0.64    0.89
  WS02006231WS02006230 CONDUIT    303.87     0  01:57      0.85    4.61    0.88
  WS02006230WS02006229 CONDUIT    293.88     0  01:56      0.76    6.54    1.00
  WS02006228WS02006109 CONDUIT    607.73     0  01:57      1.21    2.66    1.00
  WS02006116WS02004401 CONDUIT    642.73     0  02:00      0.84    0.89    0.94
  WS02006115WS02006116 CONDUIT    645.34     0  01:57      1.04    0.83    0.87
  WS02006113WS02006111 CONDUIT    636.90     0  01:58      2.57    0.76    0.50
  WS02006112WS02006115 CONDUIT    649.25     0  01:56      0.86    0.38    0.92
  WS02006111WS02006112 CONDUIT    610.51     0  01:56      1.67    0.29    0.69
  WS02006110WS02006113 CONDUIT    610.02     0  01:57      1.41    0.56    0.80
  WS02006109WS02006110 CONDUIT    608.84     0  01:57      1.21    1.17    1.00
  WS02004411WS02004412 CONDUIT    641.13     0  02:01      1.09    0.91    0.75
  WS02004401WS02004402 CONDUIT    644.40     0  01:57      0.83    0.77    0.96
  WS02004413WS02003067 CONDUIT    641.00     0  02:02      1.23    0.27    0.63
  WS02004412WS02004413 CONDUIT    641.07     0  02:02      1.00    0.43    0.83
  WS02004410WS02004411 CONDUIT    641.35     0  02:01      1.02    0.88    0.75
  WS02004409WS02004410 CONDUIT    641.74     0  02:01      1.03    0.83    0.74
  WS02004407WS02004409 CONDUIT    642.37     0  02:00      1.53    0.23    0.53
  WS02004406WS02004407 CONDUIT    642.55     0  01:59      1.16    0.29    0.66
  WS02004405WS02004406 CONDUIT    642.64     0  02:00      0.82    1.27    1.00
  WS02004404WS02004405 CONDUIT    642.53     0  01:59      0.82    6.30    1.00
  WS02004403WS02004404 CONDUIT    642.44     0  01:59      0.82    0.46    0.99
  WS02004402WS02004403 CONDUIT    643.21     0  01:58      0.83    0.92    0.97
  WS02004139WS02001211 CONDUIT    111.57     0  02:05      0.62    0.14    0.22
  WS02004138WS02004139 CONDUIT    292.33     0  00:00      3.35    0.06    0.18
  WS02003067WS02003066 CONDUIT    641.06     0  02:02      1.34    0.21    0.44
  WS02001213WS02003059 CONDUIT    104.85     0  02:02      0.26    0.17    0.58
  WS02001212WS02001213 CONDUIT    104.46     0  02:04      0.88    0.16    0.21
  WS02001211WS02001212 CONDUIT    104.39     0  02:04      0.57    0.08    0.28
  WS02003072WS02003073 CONDUIT    552.69     0  02:04      1.43    1.19    0.37
  WS02003069WS02003072 CONDUIT    552.70     0  02:04      1.37    0.27    0.39
  WS02003060WS02003069 CONDUIT    552.41     0  02:03      1.64    0.22    0.34
  WS02003059WS02003060 CONDUIT    120.14     0  01:39      0.56    0.08    0.51
  HS02004901HS02004770 CONDUIT     45.32     0  01:54      0.11    0.17    0.60
  HS02004876HS02004881 CONDUIT    170.15     0  01:56      1.38    1.81    0.18
  HS02004870HS02004876 CONDUIT    138.23     0  01:56      0.94    0.09    0.21
  HS02004842HS02004848 CONDUIT     22.54     0  02:08      0.09    0.01    0.35
  HS02004837HS02004842 CONDUIT     23.05     0  02:09      0.42    0.01    0.37
  HS02004830HS02004837 CONDUIT     80.74     0  01:56      0.70    0.08    0.18
  HS02004824HS02004830 CONDUIT     81.20     0  01:58      0.62    0.11    0.24
  HS02004817HS02004824 CONDUIT    166.48     0  01:59      0.38    0.08    0.64
  HS02004770HS02004777 CONDUIT    233.93     0  01:55      0.55    0.43    0.61
  HS02004799HS02004480 CONDUIT    580.06     0  01:56      1.20    0.73    0.69
  HS02004792HS02004799 CONDUIT    532.62     0  01:56      1.34    0.33    0.57
  HS02004788HS02004792 CONDUIT    306.28     0  01:56      1.37    0.20    0.32
  HS02004785HS02004788 CONDUIT    233.88     0  01:56      1.00    1.76    0.33
  HS02004777HS02004785 CONDUIT    233.75     0  01:55      0.65    0.29    0.51
  HS02004480HS02004478 CONDUIT    679.91     0  01:56      1.71    2.86    0.57
  HS02004479HS02004480 CONDUIT     99.83     0  01:56      0.39    0.10    0.66
  HS02004862HS02004870 CONDUIT    106.67     0  01:57      0.89    0.12    0.17
  HS02004848HS02004852 CONDUIT     50.70     0  01:57      0.58    0.06    0.12
  HS02004856HS02004862 CONDUIT     74.38     0  01:56      0.66    0.07    0.16
  HS02004852HS02004856 CONDUIT     50.77     0  01:57      0.39    0.06    0.19
  HS02004802HS02004478 CONDUIT    223.70     0  01:59      0.57    0.20    0.57
  HS02004478WS02006287 CONDUIT    900.37     0  01:57      2.34    0.25    0.43
  HS02004817HS02004807 CONDUIT    167.19     0  01:59      0.30    0.10    0.81
  HS02004807HS02004802 CONDUIT    222.90     0  01:58      0.51    0.43    0.63
  YS02001759YS02001757 CONDUIT    901.52     0  01:54      1.15    0.64    1.00
  YS02001762YS02001759 CONDUIT    412.85     0  01:49      0.53    0.48    1.00
  YS02001765YS02001762 CONDUIT    412.76     0  01:49      0.53    0.39    1.00
  YS02001770YS02001767 CONDUIT    412.28     0  01:49      0.52    1.63    1.00
  YS02001774YS02001770 CONDUIT    851.48     0  02:22      1.08    0.54    1.00
  YS02001779YS02001774 CONDUIT    851.36     0  02:23      1.08    0.43    1.00
  YS02001649YS02001757 CONDUIT    951.72     0  01:45      1.21    0.58    1.00
  YS02001767YS02001765 CONDUIT    412.64     0  01:49      0.53    0.52    1.00
  YS02006561YS02001783 CONDUIT   1156.26     0  02:19      2.30    0.60    1.00
  YS02001783YS02001784 CONDUIT   1156.24     0  02:19      2.30    1.59    1.00
  YS02001784YS02001785 CONDUIT   1157.27     0  02:19      2.30    2.69    1.00
  YS02001788YS02001790 CONDUIT   1169.92     0  02:19      2.74    0.86    1.00
  YS02001790YS02001791 CONDUIT   1277.07     0  02:06      3.41    1.39    1.00
  YS02001791YS02001793 CONDUIT   1222.26     0  02:15      6.72    0.52    1.00
  YS02001910YS02001907 CONDUIT    819.49     0  02:33      1.04    0.46    1.00
  YS02001786YS02001788 CONDUIT   1157.79     0  02:19      2.48    2.23    1.00
  YS02001915YS02001910 CONDUIT    819.48     0  02:33      1.04    0.41    1.00
  YS02001918YS02001915 CONDUIT    394.34     0  01:50      0.54    0.22    1.00
  YS02001923YS02001920 CONDUIT    391.34     0  01:50      0.89    0.18    1.00
  YS02001926YS02001923 CONDUIT    322.12     0  01:51      0.98    0.46    1.00
  YS02001929YS02001926 CONDUIT    303.70     0  02:55      1.05    0.14    1.00
  YS02001920YS02001918 CONDUIT    394.13     0  01:50      0.84    0.38    1.00
  YS02001629YS02163301 CONDUIT    209.89     0  01:43      0.27    0.26    1.00
  YS02001619YS02001622 CONDUIT    529.66     0  02:29      0.74    0.78    1.00
  YS02001622YS02001625 CONDUIT    529.66     0  02:29      0.67    0.28    1.00
  YS02001625YS02001629 CONDUIT    229.38     0  01:39      0.31    0.11    1.00
  YS02163301YS02001633 CONDUIT    210.55     0  01:43      0.27    0.20    1.00
  YS02163601YS02164001 CONDUIT    434.53     0  01:43      0.55    0.39    1.00
  YS02164001YS02001641 CONDUIT    434.82     0  01:44      0.55    0.59    1.00
  YS02001641YS02001644 CONDUIT    435.27     0  01:44      0.55    1.41    1.00
  YS02001647YS02001649 CONDUIT    846.70     0  03:11      1.08    0.45    1.00
  YS02006553YS02006556 CONDUIT    728.61     0  03:53      0.93    0.62    1.00
  YS02006556YS02006558 CONDUIT    728.75     0  03:53      0.93    0.58    1.00
  YSB6556YSB1171       CONDUIT     55.74     0  01:55      0.16    0.06    0.87
  YS02001907YS02006553 CONDUIT    728.52     0  03:53      0.81    0.86    1.00
  YS02006558YS02006561 CONDUIT   1156.48     0  02:19      4.09    2.56    1.00
  YS02001633YS02163601 CONDUIT    434.82     0  01:44      0.55    0.46    1.00
  YS02001644YS02001647 CONDUIT    846.70     0  03:11      1.08    0.50    1.00
  YS02001745YS02001748 CONDUIT    612.53     0  02:30      1.69    0.24    1.00
  YS02001748YS02001751 CONDUIT    612.57     0  02:30      1.23    0.31    1.00
  YS02001751YS02001754 CONDUIT    612.58     0  02:30      1.05    0.30    1.00
  YS02001754YS02001757 CONDUIT    612.84     0  02:30      0.78    0.25    1.00
  YS02001882YS02001884 CONDUIT     24.27     0  07:40      0.17    0.03    1.00
  YS02001884YS02001887 CONDUIT     47.75     0  01:44      0.13    0.06    1.00
  YS02001890YS02001895 CONDUIT    576.69     0  01:49      0.73    0.27    1.00
  YS02001895YS02001898 CONDUIT    576.31     0  01:49      0.73    1.00    1.00
  YS02001898YS02001901 CONDUIT    575.85     0  01:49      0.73    0.37    1.00
  YS02001901YS02001904 CONDUIT    575.61     0  01:49      0.73    0.89    1.00
  YS02001904YS02001907 CONDUIT    574.81     0  01:49      0.73    0.20    1.00
  YS02001887YS02001890 CONDUIT    877.22     0  02:13      1.12    1.50    1.00
  YS02001652YS02001649 CONDUIT    650.45     0  02:19      0.83    0.32    1.00
  YS02001655YS02001652 CONDUIT    650.46     0  02:19      1.13    0.32    1.00
  YS02001658YS02001655 CONDUIT    650.32     0  02:19      1.43    0.28    1.00
  YS02001661YS02001658 CONDUIT    650.34     0  02:19      1.80    0.26    1.00
  YS02001664YS02001661 CONDUIT    802.05     0  01:51      1.70    0.25    0.79
  YSB1154YSB6556       CONDUIT     55.92     0  01:54      0.17    0.10    0.82
  YSB1174YSB1171       CONDUIT     45.60     0  01:53      0.12    0.07    0.91
  YSB1171HS02004479    CONDUIT    100.04     0  01:55      0.54    0.07    0.76
  HS02004881HS02006253 CONDUIT    187.07     0  01:56      3.03    0.04    0.09
  YS02001793JiankangQianchi CONDUIT   1244.07     0  02:07     20.73    0.10    1.00
  YS02001757CaochengTiaoxuchi CONDUIT   2180.52     0  01:54      3.67    0.96    1.00
  WSF200WS02003060     CONDUIT    641.10     0  02:02      2.35    0.14    0.29
  1                    CONDUIT    554.42     0  02:05      2.83    0.19    0.30
  CC-Pump-1            PUMP       200.00     0  01:29              1.00
  CC-Pump-2            PUMP         0.00     0  00:00              0.00
  JK-Pump-1            PUMP       300.00     0  00:00              1.00
  JK-Pump-2            PUMP       683.00     0  00:00              1.00
  XR-Pump-1            PUMP         0.00     0  00:00              0.00
  XR-Pump-2            PUMP        95.00     0  00:00              1.00
  XR-Pump-3            PUMP        95.00     0  00:00              1.00
  XR-Pump-4            PUMP        95.00     0  00:00              1.00
  3                    WEIR       324.33     0  01:56                      0.21
  5                    WEIR       633.37     0  01:59                      0.33
  6                    WEIR       396.86     0  02:05                      0.24
  
  
  ***************************
  Flow Classification Summary
  ***************************
  
  -------------------------------------------------------------------------------------
                      Adjusted    ---------- Fraction of Time in Flow Class ---------- 
                       /Actual         Up    Down  Sub   Sup   Up    Down  Norm  Inlet 
  Conduit               Length    Dry  Dry   Dry   Crit  Crit  Crit  Crit  Ltd   Ctrl  
  -------------------------------------------------------------------------------------
  WS02003066WSF200        1.00   0.05  0.00  0.00  0.00  0.95  0.00  0.00  0.72  0.00
  WS02006287WS02006284    1.00   0.02  0.01  0.00  0.59  0.39  0.00  0.00  0.62  0.00
  WS02006284WS02006280    1.00   0.02  0.00  0.00  0.00  0.00  0.00  0.98  0.00  0.00
  WS02006280WS02006229    1.00   0.02  0.00  0.00  0.00  0.00  0.00  0.98  0.00  0.00
  WS02006229WS02006228    1.00   0.00  0.00  0.00  1.00  0.00  0.00  0.00  0.00  0.00
  WS02006256WS02006235    1.00   0.00  0.00  0.00  0.10  0.90  0.00  0.00  0.01  0.00
  WS02006253WS02006251    1.00   0.01  0.01  0.00  0.73  0.00  0.25  0.00  0.00  0.00
  WS02006252WS02006251    1.00   0.04  0.00  0.00  0.00  0.00  0.96  0.00  0.00  0.00
  WS02006251WS02006249    1.00   0.00  0.00  0.00  1.00  0.00  0.00  0.00  0.74  0.00
  WS02006249WS02006248    1.00   0.00  0.02  0.00  0.24  0.00  0.74  0.00  0.00  0.00
  WS02006248WS02006247    1.00   0.02  0.00  0.00  0.97  0.00  0.00  0.01  0.66  0.00
  WS02006247WS02006245    1.00   0.02  0.00  0.00  0.96  0.00  0.00  0.01  0.00  0.00
  WS02006245WS02006243    1.00   0.03  0.00  0.00  0.95  0.00  0.00  0.02  0.00  0.00
  WS02006243WS02006242    1.00   0.03  0.00  0.00  0.96  0.00  0.00  0.01  0.81  0.00
  WS02006242WS02006240    1.00   0.00  0.03  0.00  0.97  0.00  0.00  0.00  0.17  0.00
  WS02006240WS02006239    1.00   0.00  0.00  0.00  0.97  0.00  0.00  0.03  0.00  0.00
  WS02006239WS02006238    1.00   0.00  0.00  0.00  1.00  0.00  0.00  0.00  0.16  0.00
  WS02006238WS02006235    1.00   0.00  0.00  0.00  1.00  0.00  0.00  0.00  0.00  0.00
  WS02006235WS02006234    1.00   0.03  0.00  0.00  0.91  0.00  0.00  0.06  0.00  0.00
  WS02006234WS02006232    1.00   0.00  0.00  0.00  1.00  0.00  0.00  0.00  0.12  0.00
  WS02006232WS02006231    1.00   0.00  0.00  0.00  1.00  0.00  0.00  0.00  0.01  0.00
  WS02006231WS02006230    1.00   0.00  0.00  0.00  0.30  0.00  0.70  0.00  0.00  0.00
  WS02006230WS02006229    1.00   0.00  0.00  0.00  0.99  0.00  0.00  0.01  0.01  0.00
  WS02006228WS02006109    1.00   0.00  0.00  0.00  1.00  0.00  0.00  0.00  0.00  0.00
  WS02006116WS02004401    1.00   0.02  0.00  0.00  0.98  0.00  0.00  0.00  0.00  0.00
  WS02006115WS02006116    1.00   0.02  0.00  0.00  0.97  0.00  0.00  0.01  0.00  0.00
  WS02006113WS02006111    1.00   0.01  0.00  0.00  0.00  0.99  0.00  0.00  0.04  0.00
  WS02006112WS02006115    1.00   0.01  0.01  0.00  0.98  0.00  0.00  0.00  0.00  0.00
  WS02006111WS02006112    1.00   0.01  0.00  0.00  0.99  0.00  0.00  0.00  0.91  0.00
  WS02006110WS02006113    1.00   0.00  0.01  0.00  0.99  0.00  0.00  0.00  0.00  0.00
  WS02006109WS02006110    1.00   0.00  0.00  0.00  1.00  0.00  0.00  0.00  0.00  0.00
  WS02004411WS02004412    1.00   0.04  0.00  0.00  0.96  0.00  0.00  0.00  0.00  0.00
  WS02004401WS02004402    1.00   0.02  0.00  0.00  0.98  0.00  0.00  0.00  0.03  0.00
  WS02004413WS02003067    1.00   0.04  0.01  0.00  0.00  0.00  0.95  0.00  0.00  0.00
  WS02004412WS02004413    1.00   0.04  0.00  0.00  0.96  0.00  0.00  0.00  0.00  0.00
  WS02004410WS02004411    1.00   0.04  0.00  0.00  0.96  0.00  0.00  0.00  0.00  0.00
  WS02004409WS02004410    1.00   0.04  0.00  0.00  0.96  0.00  0.00  0.00  0.00  0.00
  WS02004407WS02004409    1.00   0.03  0.00  0.00  0.95  0.01  0.00  0.00  0.81  0.00
  WS02004406WS02004407    1.00   0.00  0.03  0.00  0.97  0.00  0.00  0.00  0.00  0.00
  WS02004405WS02004406    1.00   0.00  0.00  0.00  1.00  0.00  0.00  0.00  0.04  0.00
  WS02004404WS02004405    1.00   0.00  0.00  0.00  1.00  0.00  0.00  0.00  0.00  0.00
  WS02004403WS02004404    1.00   0.00  0.02  0.00  0.98  0.00  0.00  0.00  0.04  0.00
  WS02004402WS02004403    1.00   0.02  0.00  0.00  0.98  0.00  0.00  0.00  0.00  0.00
  WS02004139WS02001211    1.00   0.00  0.00  0.00  1.00  0.00  0.00  0.00  0.00  0.00
  WS02004138WS02004139    1.00   0.00  0.00  0.00  0.00  0.18  0.00  0.82  0.15  0.00
  WS02003067WS02003066    1.00   0.05  0.00  0.00  0.95  0.00  0.00  0.00  0.00  0.00
  WS02001213WS02003059    1.00   0.00  0.00  0.00  1.00  0.00  0.00  0.00  0.00  0.00
  WS02001212WS02001213    1.00   0.00  0.00  0.00  0.42  0.00  0.58  0.00  0.01  0.00
  WS02001211WS02001212    1.00   0.00  0.00  0.00  1.00  0.00  0.00  0.00  0.25  0.00
  WS02003072WS02003073    1.00   0.00  0.00  0.00  0.00  0.00  0.00  1.00  0.00  0.00
  WS02003069WS02003072    1.00   0.00  0.00  0.00  1.00  0.00  0.00  0.00  0.84  0.00
  WS02003060WS02003069    1.00   0.00  0.00  0.00  0.98  0.02  0.00  0.00  0.79  0.00
  WS02003059WS02003060    1.00   0.00  0.00  0.00  1.00  0.00  0.00  0.00  0.08  0.00
  HS02004901HS02004770    1.00   0.02  0.00  0.00  0.98  0.00  0.00  0.00  0.00  0.00
  HS02004876HS02004881    1.00   0.00  0.00  0.00  0.76  0.24  0.00  0.00  0.00  0.00
  HS02004870HS02004876    1.00   0.00  0.00  0.00  1.00  0.00  0.00  0.00  0.95  0.00
  HS02004842HS02004848    1.00   0.00  0.02  0.00  0.98  0.00  0.00  0.00  0.56  0.00
  HS02004837HS02004842    1.00   0.00  0.00  0.00  1.00  0.00  0.00  0.00  0.11  0.00
  HS02004830HS02004837    1.00   0.00  0.00  0.00  1.00  0.00  0.00  0.00  0.99  0.00
  HS02004824HS02004830    1.00   0.00  0.00  0.00  1.00  0.00  0.00  0.00  0.03  0.00
  HS02004817HS02004824    1.00   0.00  0.00  0.00  1.00  0.00  0.00  0.00  0.88  0.00
  HS02004770HS02004777    1.00   0.00  0.02  0.00  0.98  0.00  0.00  0.00  0.01  0.00
  HS02004799HS02004480    1.00   0.00  0.01  0.00  0.98  0.00  0.02  0.00  0.00  0.00
  HS02004792HS02004799    1.00   0.00  0.00  0.00  1.00  0.00  0.00  0.00  0.98  0.00
  HS02004788HS02004792    1.00   0.00  0.00  0.00  1.00  0.00  0.00  0.00  0.98  0.00
  HS02004785HS02004788    1.00   0.00  0.00  0.00  1.00  0.00  0.00  0.00  0.00  0.00
  HS02004777HS02004785    1.00   0.00  0.00  0.00  1.00  0.00  0.00  0.00  0.10  0.00
  HS02004480HS02004478    1.00   0.02  0.00  0.00  0.64  0.00  0.00  0.33  0.00  0.00
  HS02004479HS02004480    1.00   0.01  0.00  0.00  0.99  0.00  0.00  0.00  0.10  0.00
  HS02004862HS02004870    1.00   0.00  0.00  0.00  1.00  0.00  0.00  0.00  0.02  0.00
  HS02004848HS02004852    1.00   0.02  0.00  0.00  0.98  0.00  0.00  0.00  0.80  0.00
  HS02004856HS02004862    1.00   0.00  0.03  0.00  0.97  0.00  0.00  0.00  0.85  0.00
  HS02004852HS02004856    1.00   0.02  0.00  0.00  0.98  0.00  0.00  0.00  0.72  0.00
  HS02004802HS02004478    1.00   0.02  0.00  0.00  0.98  0.00  0.00  0.00  0.02  0.00
  HS02004478WS02006287    1.00   0.02  0.00  0.00  0.69  0.28  0.00  0.00  0.61  0.00
  HS02004817HS02004807    1.00   0.00  0.02  0.00  0.98  0.00  0.00  0.00  0.01  0.00
  HS02004807HS02004802    1.00   0.02  0.00  0.00  0.98  0.00  0.00  0.00  0.00  0.00
  YS02001759YS02001757    1.00   0.00  0.00  0.00  1.00  0.00  0.00  0.00  0.15  0.00
  YS02001762YS02001759    1.00   0.00  0.00  0.00  1.00  0.00  0.00  0.00  0.02  0.00
  YS02001765YS02001762    1.00   0.00  0.00  0.00  1.00  0.00  0.00  0.00  0.13  0.00
  YS02001770YS02001767    1.00   0.00  0.00  0.00  1.00  0.00  0.00  0.00  0.00  0.00
  YS02001774YS02001770    1.00   0.00  0.02  0.00  0.98  0.00  0.00  0.00  0.01  0.00
  YS02001779YS02001774    1.00   0.00  0.00  0.00  1.00  0.00  0.00  0.00  0.16  0.00
  YS02001649YS02001757    1.00   0.00  0.00  0.00  1.00  0.00  0.00  0.00  0.14  0.00
  YS02001767YS02001765    1.00   0.00  0.00  0.00  1.00  0.00  0.00  0.00  0.00  0.00
  YS02006561YS02001783    1.00   0.03  0.00  0.00  0.38  0.60  0.00  0.00  0.38  0.00
  YS02001783YS02001784    1.00   0.00  0.03  0.00  0.97  0.00  0.00  0.00  0.00  0.00
  YS02001784YS02001785    1.00   0.00  0.00  0.00  1.00  0.00  0.00  0.00  0.15  0.00
  YS02001788YS02001790    1.00   0.00  0.00  0.00  0.28  0.72  0.00  0.00  0.36  0.00
  YS02001790YS02001791    1.00   0.00  0.00  0.00  0.25  0.75  0.00  0.00  0.50  0.00
  YS02001791YS02001793    1.00   0.00  0.00  0.00  0.26  0.74  0.00  0.00  0.00  0.00
  YS02001910YS02001907    1.00   0.00  0.00  0.00  0.99  0.00  0.00  0.00  0.11  0.00
  YS02001786YS02001788    1.00   0.00  0.00  0.00  0.36  0.64  0.00  0.00  0.00  0.00
  YS02001915YS02001910    1.00   0.00  0.00  0.00  1.00  0.00  0.00  0.00  0.12  0.00
  YS02001918YS02001915    1.00   0.00  0.00  0.00  1.00  0.00  0.00  0.00  0.48  0.00
  YS02001923YS02001920    1.00   0.00  0.00  0.00  1.00  0.00  0.00  0.00  0.70  0.00
  YS02001926YS02001923    1.00   0.00  0.01  0.00  0.32  0.00  0.67  0.00  0.00  0.00
  YS02001929YS02001926    1.00   0.00  0.02  0.00  0.98  0.00  0.00  0.00  0.62  0.00
  YS02001920YS02001918    1.00   0.00  0.00  0.00  1.00  0.00  0.00  0.00  0.00  0.00
  YS02001629YS02163301    1.00   0.02  0.00  0.00  0.98  0.00  0.00  0.00  0.00  0.00
  YS02001619YS02001622    1.00   0.02  0.00  0.00  0.98  0.00  0.00  0.00  0.00  0.00
  YS02001622YS02001625    1.00   0.02  0.00  0.00  0.98  0.00  0.00  0.00  0.03  0.00
  YS02001625YS02001629    1.00   0.02  0.01  0.00  0.96  0.00  0.01  0.00  0.00  0.00
  YS02163301YS02001633    1.00   0.00  0.02  0.00  0.98  0.00  0.00  0.00  0.00  0.00
  YS02163601YS02164001    1.00   0.00  0.01  0.00  0.99  0.00  0.00  0.00  0.00  0.00
  YS02164001YS02001641    1.00   0.00  0.01  0.00  0.99  0.00  0.00  0.00  0.05  0.00
  YS02001641YS02001644    1.00   0.00  0.00  0.00  1.00  0.00  0.00  0.00  0.00  0.00
  YS02001647YS02001649    1.00   0.00  0.03  0.00  0.97  0.00  0.00  0.00  0.01  0.00
  YS02006553YS02006556    1.00   0.00  0.00  0.00  1.00  0.00  0.00  0.00  0.03  0.00
  YS02006556YS02006558    1.00   0.00  0.00  0.00  1.00  0.00  0.00  0.00  0.00  0.00
  YSB6556YSB1171          1.00   0.01  0.01  0.00  0.98  0.00  0.00  0.00  0.00  0.00
  YS02001907YS02006553    1.00   0.00  0.00  0.00  1.00  0.00  0.00  0.00  0.00  0.00
  YS02006558YS02006561    1.00   0.03  0.00  0.00  0.31  0.66  0.00  0.00  0.38  0.00
  YS02001633YS02163601    1.00   0.00  0.00  0.00  1.00  0.00  0.00  0.00  0.14  0.00
  YS02001644YS02001647    1.00   0.00  0.03  0.00  0.97  0.00  0.00  0.00  0.00  0.00
  YS02001745YS02001748    1.00   0.00  0.00  0.00  0.95  0.00  0.00  0.05  0.01  0.00
  YS02001748YS02001751    1.00   0.00  0.00  0.00  0.98  0.02  0.00  0.00  0.13  0.00
  YS02001751YS02001754    1.00   0.00  0.00  0.00  0.97  0.00  0.00  0.03  0.01  0.00
  YS02001754YS02001757    1.00   0.00  0.00  0.00  1.00  0.00  0.00  0.00  0.16  0.00
  YS02001882YS02001884    1.00   0.02  0.00  0.00  0.98  0.00  0.00  0.00  0.00  0.00
  YS02001884YS02001887    1.00   0.01  0.01  0.00  0.98  0.00  0.00  0.00  0.00  0.00
  YS02001890YS02001895    1.00   0.00  0.02  0.00  0.98  0.00  0.00  0.00  0.00  0.00
  YS02001895YS02001898    1.00   0.02  0.00  0.00  0.97  0.00  0.00  0.00  0.00  0.00
  YS02001898YS02001901    1.00   0.02  0.00  0.00  0.97  0.00  0.00  0.00  0.01  0.00
  YS02001901YS02001904    1.00   0.02  0.00  0.00  0.97  0.00  0.00  0.00  0.00  0.00
  YS02001904YS02001907    1.00   0.00  0.02  0.00  0.97  0.00  0.00  0.00  0.00  0.00
  YS02001887YS02001890    1.00   0.00  0.00  0.00  0.99  0.00  0.01  0.00  0.00  0.00
  YS02001652YS02001649    1.00   0.00  0.00  0.00  1.00  0.00  0.00  0.00  0.14  0.00
  YS02001655YS02001652    1.00   0.00  0.00  0.00  0.97  0.00  0.00  0.03  0.01  0.00
  YS02001658YS02001655    1.00   0.00  0.02  0.00  0.96  0.01  0.00  0.00  0.02  0.00
  YS02001661YS02001658    1.00   0.02  0.00  0.00  0.95  0.03  0.00  0.00  0.01  0.00
  YS02001664YS02001661    1.00   0.02  0.00  0.00  0.94  0.03  0.00  0.00  0.09  0.00
  YSB1154YSB6556          1.00   0.02  0.00  0.00  0.98  0.00  0.00  0.00  0.01  0.00
  YSB1174YSB1171          1.00   0.01  0.01  0.00  0.98  0.00  0.00  0.00  0.00  0.00
  YSB1171HS02004479       1.00   0.01  0.00  0.00  0.99  0.00  0.00  0.00  0.09  0.00
  HS02004881HS02006253    1.00   0.01  0.00  0.00  0.00  0.00  0.00  0.99  0.00  0.00
  YS02001793JiankangQianchi    1.00   0.00  0.00  0.00  0.32  0.68  0.00  0.00  0.07  0.00
  YS02001757CaochengTiaoxuchi    1.00   0.00  0.04  0.00  0.92  0.05  0.00  0.00  0.00  0.00
  WSF200WS02003060        1.00   0.00  0.05  0.00  0.00  0.94  0.00  0.00  0.58  0.00
  1                       1.00   0.00  0.00  0.00  0.00  1.00  0.00  0.00  0.50  0.00
  
  
  *************************
  Conduit Surcharge Summary
  *************************
  
  ----------------------------------------------------------------------------
                                                           Hours        Hours 
                         --------- Hours Full --------   Above Full   Capacity
  Conduit                Both Ends  Upstream  Dnstream   Normal Flow   Limited
  ----------------------------------------------------------------------------
  WS02006229WS02006228        1.01      1.05      1.01      1.63         1.01
  WS02006256WS02006235        0.40      0.40      6.67      6.66         0.01
  WS02006235WS02006234        0.01      0.01      0.01      0.99         0.01
  WS02006231WS02006230        0.01      0.01      0.01      1.22         0.01
  WS02006230WS02006229        1.30      1.30      1.32      3.13         0.01
  WS02006228WS02006109        1.03      1.17      1.03      1.84         1.03
  WS02006112WS02006115        0.01      0.01      0.66      0.01         0.01
  WS02006111WS02006112        0.01      0.01      1.65      0.01         0.01
  WS02006110WS02006113        0.01      0.01      1.10      0.01         0.01
  WS02006109WS02006110        0.40      0.40      1.17      0.41         0.01
  WS02004406WS02004407        0.01      0.01      0.16      0.01         0.01
  WS02004405WS02004406        0.16      0.23      0.16      0.57         0.16
  WS02004404WS02004405        0.23      0.29      0.23      2.39         0.22
  WS02004403WS02004404        0.01      0.01      0.29      0.01         0.01
  WS02003072WS02003073        0.01      0.01      0.01      0.52         0.01
  HS02004876HS02004881        0.01      0.01      0.01      0.91         0.01
  HS02004817HS02004824        0.01      0.01      0.45      0.01         0.01
  HS02004785HS02004788        0.01      0.01      0.01      0.86         0.01
  HS02004480HS02004478        0.01      0.01      0.01      1.61         0.01
  HS02004817HS02004807        0.01      0.01      0.45      0.01         0.01
  YS02001759YS02001757        6.43      6.43      6.46      0.01         0.01
  YS02001762YS02001759        6.42      6.42      6.43      0.01         0.01
  YS02001765YS02001762        6.41      6.41      6.42      0.01         0.01
  YS02001770YS02001767        6.41      6.41      6.41      1.30         0.53
[...]
  YS02001783YS02001784        2.21      2.24      2.21      2.53         2.21
  YS02001784YS02001785        2.10      2.21      2.10      3.29         2.10
  YS02001788YS02001790        1.49      1.49      1.59      0.01         0.01
  YS02001790YS02001791        1.59      1.59      1.59      2.19         1.59
  YS02001791YS02001793        1.59      1.59      1.75      0.01         0.01
  YS02001910YS02001907        2.29      2.29      2.80      0.01         0.01
  YS02001786YS02001788        1.49      2.10      1.49      2.94         1.49
  YS02001915YS02001910        2.14      2.14      2.29      0.01         0.01
  YS02001918YS02001915        1.98      1.98      2.14      0.01         0.01
  YS02001923YS02001920        1.84      1.84      2.01      0.01         0.01
  YS02001926YS02001923        0.01      0.01      0.01      0.01         0.01
  YS02001929YS02001926        0.01      0.01      0.01      0.01         0.01
  YS02001920YS02001918        1.98      1.98      2.01      0.01         0.01
  YS02001629YS02163301        6.39      6.39      6.39      0.01         0.01
  YS02001619YS02001622        6.32      6.32      6.32      0.01         0.02
  YS02001622YS02001625        6.32      6.32      6.38      0.01         0.01
  YS02001625YS02001629        6.32      6.32      6.38      0.01         0.01
  YS02163301YS02001633        6.39      6.39      6.41      0.01         0.01
  YS02163601YS02164001        6.41      6.41      6.42      0.01         0.01
  YS02164001YS02001641        6.41      6.41      6.42      0.01         0.01
  YS02001641YS02001644        6.41      6.42      6.42      2.82         2.92
  YS02001647YS02001649        6.38      6.38      6.42      0.01         0.01
  YS02006553YS02006556        2.48      2.48      2.84      0.01         0.01
  YS02006556YS02006558        2.59      2.59      2.91      0.01         0.01
  YSB6556YSB1171              0.01      0.01      0.58      0.01         0.01
  YS02001907YS02006553        3.31      3.31      3.52      0.01         0.01
  YS02006558YS02006561        2.08      2.45      2.08      3.18         2.08
  YS02001633YS02163601        6.40      6.40      6.42      0.01         0.01
  YS02001644YS02001647        6.38      6.38      6.42      0.01         0.01
  YS02001745YS02001748        0.77      0.77      6.28      0.01         0.01
  YS02001748YS02001751        6.29      6.29      6.32      0.01         0.01
  YS02001751YS02001754        6.32      6.32      6.36      0.01         0.01
  YS02001754YS02001757        6.38      6.38      6.46      0.01         0.01
  YS02001882YS02001884        2.15      2.15      2.17      0.01         0.01
  YS02001884YS02001887        2.20      2.20      2.22      0.01         0.01
  YS02001890YS02001895        2.13      2.13      2.30      0.01         0.01
  YS02001895YS02001898        2.12      2.12      2.13      0.01         0.01
  YS02001898YS02001901        2.13      2.13      2.19      0.01         0.01
  YS02001901YS02001904        2.18      2.18      2.19      0.01         0.01
  YS02001904YS02001907        2.18      2.18      2.87      0.01         0.01
  YS02001887YS02001890        2.25      2.25      2.27      1.26         0.01
  YS02001652YS02001649        6.39      6.39      6.42      0.01         0.01
  YS02001655YS02001652        6.33      6.33      6.38      0.01         0.01
  YS02001658YS02001655        6.28      6.28      6.33      0.01         0.01
  YS02001661YS02001658        1.16      1.16      6.28      0.01         0.01
  YS02001664YS02001661        0.01      0.01      2.54      0.01         0.01
  YSB1174YSB1171              0.01      0.01      0.29      0.01         0.01
  YS02001793JiankangQianchi        1.71      1.71      2.41      0.01         0.01
  YS02001757CaochengTiaoxuchi        5.92      5.92      6.46      0.01         0.01
  
  
  ***************
  Pumping Summary
  ***************
  
  ---------------------------------------------------------------------------------------------------------
                                                  Min       Avg       Max     Total     Power    % Time Off
                        Percent   Number of      Flow      Flow      Flow    Volume     Usage    Pump Curve
  Pump                 Utilized   Start-Ups       LPS       LPS       LPS  10^6 ltr     Kw-hr    Low   High
  ---------------------------------------------------------------------------------------------------------
  CC-Pump-1               81.99           1      0.00    199.46    200.00     4.698      4.10    0.0    5.2
  CC-Pump-2                0.00           0      0.00      0.00      0.00     0.000      0.00    0.0    0.0
  JK-Pump-1              100.00           1      0.00    248.05    300.00     6.123    105.83    0.0    0.0
  JK-Pump-2              100.00           1      0.00    426.24    683.00    10.509    161.98    0.0   98.0
  XR-Pump-1                0.00           0      0.00      0.00      0.00     0.000      0.00    0.0    0.0
  XR-Pump-2              100.00           1      0.00     95.00     95.00     2.736     20.57    0.0    0.0
  XR-Pump-3              100.00           1      0.00     95.00     95.00     2.736     20.57    0.0    0.0
  XR-Pump-4              100.00           1      0.00     95.00     95.00     2.736     20.57    0.0    0.0
  
  
  ***************************
  Link Pollutant Load Summary
  ***************************
  
  ------------------------------------------------------------------------------------------
                                 COD            SS            TN            TP         NH4-N
  Link                            kg            kg            kg            kg            kg
  ------------------------------------------------------------------------------------------
  WS02003066WSF200           522.408      1022.502        14.230         1.295         7.531
  WS02006287WS02006284       604.161      1193.896        16.081         1.448         8.469
  WS02006284WS02006280       604.597      1194.540        16.129         1.454         8.499
  WS02006280WS02006229       604.580      1194.514        16.127         1.454         8.498
  WS02006229WS02006228       497.606       973.227        13.798         1.263         7.333
  WS02006256WS02006235       345.908       679.647         6.811         0.492         3.328
  WS02006253WS02006251       107.107       218.396         2.223         0.159         1.079
  WS02006252WS02006251       521.459      1017.483         9.951         0.687         4.799
  WS02006251WS02006249        96.677       190.211         1.877         0.131         0.907
  WS02006249WS02006248        96.408       189.696         1.870         0.130         0.904
  WS02006248WS02006247        96.325       189.543         1.869         0.130         0.903
  WS02006247WS02006245        96.131       189.172         1.864         0.130         0.901
  WS02006245WS02006243        95.891       188.712         1.860         0.130         0.898
  WS02006243WS02006242        95.750       188.451         1.857         0.129         0.897
  WS02006242WS02006240        95.350       187.688         1.848         0.129         0.893
  WS02006240WS02006239        95.119       187.245         1.843         0.128         0.890
  WS02006239WS02006238        94.786       186.606         1.837         0.128         0.887
  WS02006238WS02006235        94.831       186.704         1.838         0.128         0.888
  WS02006235WS02006234       143.514       290.480         3.055         0.241         1.517
  WS02006234WS02006232       144.126       291.623         3.071         0.243         1.525
  WS02006232WS02006231       145.057       293.362         3.095         0.245         1.538
  WS02006231WS02006230       145.659       294.487         3.111         0.246         1.546
  WS02006230WS02006229       147.391       297.690         3.156         0.250         1.569
  WS02006228WS02006109       497.125       972.478        13.749         1.257         7.302
  WS02006116WS02004401       528.438      1032.254        14.760         1.361         7.861
  WS02006115WS02006116       528.720      1032.638        14.805         1.366         7.889
  WS02006113WS02006111       504.511       984.292        14.461         1.346         7.747
  WS02006112WS02006115       529.292      1033.609        14.850         1.372         7.917
  WS02006111WS02006112       504.396       984.131        14.443         1.343         7.735
  WS02006110WS02006113       504.685       984.596        14.475         1.347         7.755
  WS02006109WS02006110       505.334       985.652        14.534         1.355         7.792
  WS02004411WS02004412       524.177      1025.377        14.382         1.314         7.626
  WS02004401WS02004402       527.731      1031.075        14.704         1.354         7.825
  WS02004413WS02003067       522.868      1023.276        14.266         1.299         7.553
  WS02004412WS02004413       523.659      1024.564        14.329         1.307         7.592
  WS02004410WS02004411       524.514      1025.900        14.418         1.318         7.648
  WS02004409WS02004410       524.777      1026.302        14.448         1.322         7.667
  WS02004407WS02004409       524.977      1026.598        14.471         1.325         7.682
  WS02004406WS02004407       525.022      1026.635        14.480         1.326         7.687
  WS02004405WS02004406       526.630      1029.271        14.615         1.343         7.771
  WS02004404WS02004405       527.090      1029.984        14.662         1.349         7.800
  WS02004403WS02004404       526.423      1028.934        14.592         1.340         7.756
  WS02004402WS02004403       527.090      1030.040        14.645         1.346         7.789
  WS02004139WS02001211       107.525       193.977         6.486         0.762         3.914
  WS02004138WS02004139      1092.305      1878.950        77.596         9.273        47.267
  WS02003067WS02003066       522.413      1022.497        14.233         1.295         7.533
  WS02001213WS02003059        64.280       125.223         2.227         0.228         1.248
  WS02001212WS02001213        62.319       122.154         2.038         0.204         1.129
  WS02001211WS02001212        62.372       121.859         2.119         0.216         1.183
  WS02003072WS02003073       578.334      1089.166        23.637         2.523        13.559
  WS02003069WS02003072       579.635      1091.175        23.774         2.540        13.645
  WS02003060WS02003069       577.820      1088.239        23.605         2.519        13.540
  WS02003059WS02003060        68.148       132.546         2.342         0.239         1.309
  HS02004901HS02004770        28.050        55.967         0.544         0.042         0.259
  HS02004876HS02004881        91.760       187.189         1.942         0.139         0.944
  HS02004870HS02004876        70.335       143.547         1.534         0.110         0.747
  HS02004842HS02004848        13.439        26.667         0.279         0.019         0.130
  HS02004837HS02004842        18.109        34.105         0.750         0.079         0.426
  HS02004830HS02004837        97.220       177.861         5.257         0.603         3.138
  HS02004824HS02004830        98.053       179.246         5.333         0.612         3.185
  HS02004817HS02004824       149.075       285.109         6.365         0.678         3.686
  HS02004770HS02004777       107.421       217.607         2.220         0.155         1.038
  HS02004799HS02004480       338.256       671.079         7.811         0.646         3.907
  HS02004792HS02004799       309.466       611.458         7.300         0.615         3.667
  HS02004788HS02004792       163.476       324.313         4.341         0.378         2.239
  HS02004785HS02004788       108.833       219.848         2.368         0.174         1.132
  HS02004777HS02004785       108.154       218.781         2.304         0.166         1.092
  HS02004480HS02004478       419.680       834.740         9.285         0.757         4.617
  HS02004479HS02004480        85.113       169.708         1.777         0.148         0.897
  HS02004862HS02004870        54.312       109.655         1.212         0.091         0.592
  HS02004848HS02004852        23.982        48.243         0.487         0.034         0.228
  HS02004856HS02004862        37.691        76.807         0.758         0.052         0.359
  HS02004852HS02004856        23.999        48.270         0.487         0.034         0.228
  HS02004802HS02004478       185.516       360.843         6.864         0.699         3.893
  HS02004478WS02006287       604.289      1194.056        16.098         1.450         8.479
  HS02004817HS02004807       147.878       283.270         6.231         0.661         3.602
  HS02004807HS02004802       185.642       361.046         6.894         0.703         3.912
  YS02001759YS02001757       573.701      1108.432        11.166         0.790         5.445
  YS02001762YS02001759       307.327       588.540         6.239         0.444         3.065
  YS02001765YS02001762       309.139       593.430         6.285         0.448         3.089
  YS02001770YS02001767       315.351       609.568         6.256         0.436         3.051
  YS02001774YS02001770       693.141      1383.096        13.476         0.918         6.538
  YS02001779YS02001774       692.503      1381.917        13.539         0.928         6.583
  YS02001649YS02001757       593.552      1146.274        11.681         0.806         5.637
  YS02001767YS02001765       312.005       600.466         6.345         0.453         3.120
  YS02006561YS02001783      1521.680      2916.284        31.435         2.311        15.523
  YS02001783YS02001784      1521.569      2916.109        31.430         2.310        15.520
  YS02001784YS02001785      1529.118      2928.236        32.159         2.401        15.976
  YS02001788YS02001790      1529.776      2929.342        32.233         2.411        16.023
  YS02001790YS02001791      1530.814      2931.121        32.333         2.424        16.086
  YS02001791YS02001793      1530.850      2931.223        32.330         2.423        16.084
  YS02001910YS02001907       840.439      1628.528        18.127         1.305         9.045
  YS02001786YS02001788      1529.401      2928.768        32.188         2.405        15.995
  YS02001915YS02001910       840.473      1628.571        18.085         1.299         9.017
  YS02001918YS02001915       413.257       770.844         9.417         0.777         4.849
  YS02001923YS02001920       388.621       729.129         7.365         0.526         3.578
  YS02001926YS02001923       385.846       724.232         7.250         0.514         3.512
  YS02001929YS02001926       384.092       721.177         7.174         0.506         3.468
  YS02001920YS02001918       409.904       763.676         9.337         0.771         4.808
  YS02001629YS02163301       193.800       366.058         3.810         0.269         1.817
  YS02001619YS02001622       396.603       762.381         7.960         0.537         3.755
  YS02001622YS02001625       395.700       760.983         7.936         0.536         3.744
  YS02001625YS02001629       189.343       357.072         3.734         0.262         1.778
  YS02163301YS02001633       198.997       376.204         3.899         0.276         1.861
  YS02163601YS02164001       650.629      1222.287        12.599         0.922         6.080
  YS02164001YS02001641       650.658      1222.346        12.589         0.921         6.073
  YS02001641YS02001644       651.942      1224.537        12.605         0.922         6.080
  YS02001647YS02001649       752.567      1448.251        14.945         1.051         7.160
  YS02006553YS02006556       811.257      1517.760        17.492         1.319         8.760
  YS02006556YS02006558       811.508      1518.211        17.459         1.314         8.737
  YSB6556YSB1171              49.695        99.246         0.982         0.079         0.489
  YS02001907YS02006553       811.123      1517.543        17.521         1.323         8.780
  YS02006558YS02006561      1521.643      2916.209        31.434         2.311        15.523
  YS02001633YS02163601       651.149      1223.084        12.574         0.918         6.061
  YS02001644YS02001647       760.779      1464.143        15.084         1.061         7.227
  YS02001745YS02001748       530.047      1043.384        10.491         0.673         5.062
  YS02001748YS02001751       529.526      1042.478        10.517         0.678         5.082
  YS02001751YS02001754       528.665      1041.085        10.503         0.677         5.076
  YS02001754YS02001757       529.650      1042.614        10.674         0.700         5.186
  YS02001882YS02001884         6.815        12.222         0.128         0.010         0.063
  YS02001884YS02001887         8.212        14.833         0.154         0.012         0.076
  YS02001890YS02001895       731.990      1414.639        13.825         1.053         6.766
  YS02001895YS02001898       731.962      1414.659        13.822         1.052         6.764
  YS02001898YS02001901       731.551      1413.973        13.811         1.051         6.758
  YS02001901YS02001904       730.647      1412.689        13.797         1.051         6.752
  YS02001904YS02001907       732.641      1415.765        13.910         1.063         6.819
  YS02001887YS02001890       974.582      1904.152        18.246         1.392         8.923
  YS02001652YS02001649       480.448       932.905         9.511         0.694         4.489
  YS02001655YS02001652       480.807       933.517         9.522         0.695         4.495
  YS02001658YS02001655       480.112       932.441         9.429         0.683         4.435
  YS02001661YS02001658       480.472       933.077         9.437         0.684         4.439
  YS02001664YS02001661       497.127       959.215         9.852         0.712         4.629
  YSB1154YSB6556              49.314        98.686         0.937         0.074         0.461
  YSB1174YSB1171              33.987        68.226         0.670         0.053         0.331
  YSB1171HS02004479           85.038       169.570         1.783         0.149         0.902
  HS02004881HS02006253       102.450       209.196         2.150         0.154         1.045
  YS02001793JiankangQianchi      1531.102      2931.740        32.332         2.423        16.084
  YS02001757CaochengTiaoxuchi       850.687      1639.540        16.646         1.149         8.056
  WSF200WS02003060           522.302      1022.319        14.223         1.294         7.527
  1                          590.762      1108.894        24.860         2.676        14.325
  CC-Pump-1                  521.498      1017.556         9.951         0.687         4.800
  CC-Pump-2                    0.000         0.000         0.000         0.000         0.000
  JK-Pump-1                  374.247       735.070         7.370         0.532         3.601
  JK-Pump-2                  852.030      1673.501        16.778         1.212         8.199
  XR-Pump-1                    0.000         0.000         0.000         0.000         0.000
  XR-Pump-2                  364.472       626.934        25.895         3.095        15.774
  XR-Pump-3                  364.472       626.934        25.895         3.095        15.774
  XR-Pump-4                  364.472       626.934        25.895         3.095        15.774
  3                          532.302      1046.292        10.347         0.722         5.003
  5                          547.424      1087.206        10.944         0.807         5.360
  6                         1201.655      2075.884        84.252        10.056        51.286
  

  Analysis begun on:  Thu Jul  8 15:28:43 2021
  Analysis ended on:  Thu Jul  8 15:28:47 2021
  Total elapsed time: 00:00:04