
  EPA STORM WATER MANAGEMENT MODEL - VERSION 5.1 (Build 5.3.0.dev0)
  --------------------------------------------------------------

  WARNING 04: minimum elevation drop used for Conduit WS02004404WS02004405
  WARNING 03: negative offset ignored for Link YS02001904YS02001907
  
  *********************************************************
  NOTE: The summary statistics displayed in this report are
  based on results found at every computational time step,  
  not just on results from each reporting time step.
  *********************************************************
  
  ****************
  Analysis Options
  ****************
  Flow Units ............... LPS
  Process Models:
    Rainfall/Runoff ........ YES
    RDII ................... NO
    Snowmelt ............... NO
    Groundwater ............ NO
    Flow Routing ........... YES
    Ponding Allowed ........ NO
    Water Quality .......... YES
  Infiltration Method ...... HORTON
  Flow Routing Method ...... DYNWAVE
  Surcharge Method ......... EXTRAN
  Starting Date ............ 08/28/2015 08:00:00
  Ending Date .............. 08/28/2015 16:00:00
  Antecedent Dry Days ...... 8.0
  Report Time Step ......... 00:01:00
  Wet Time Step ............ 00:01:00
  Dry Time Step ............ 00:01:00
  Routing Time Step ........ 5.00 sec
  Variable Time Step ....... YES
  Maximum Trials ........... 8
  Number of Threads ........ 4
  Head Tolerance ........... 0.001500 m
  
  
  **************************        Volume         Depth
  Runoff Quantity Continuity     hectare-m            mm
  **************************     ---------       -------
  Total Precipitation ......         7.225        15.819
  Evaporation Loss .........         0.000         0.000
  Infiltration Loss ........         1.162         2.543
  Surface Runoff ...........         5.098        11.162
  Final Storage ............         0.967         2.116
  Continuity Error (%) .....        -0.017
  
  
  **************************           COD            SS            TN            TP         NH4-N
  Runoff Quality Continuity             kg            kg            kg            kg            kg
  **************************    ----------    ----------    ----------    ----------    ----------
  Initial Buildup ..........     41378.656     70582.865      1804.177       168.684      1032.807
  Surface Buildup ..........        29.452        60.412         2.494         0.225         1.432
  Wet Deposition ...........         0.000         0.000         0.000         0.000         0.000
  Sweeping Removal .........         0.000         0.000         0.000         0.000         0.000
  Infiltration Loss ........       121.275       234.054         2.315         0.164         1.107
  BMP Removal ..............         0.000         0.000         0.000         0.000         0.000
  Surface Runoff ...........      5076.686      9698.729        97.758         6.748        46.590
  Remaining Buildup ........     36208.131     60706.557      1706.558       161.994       986.524
  Continuity Error (%) .....         0.005         0.006         0.002         0.002         0.002
  
  
  **************************        Volume        Volume
  Flow Routing Continuity        hectare-m      10^6 ltr
  **************************     ---------     ---------
  Dry Weather Inflow .......         0.630         6.296
  Wet Weather Inflow .......         5.096        50.965
  Groundwater Inflow .......         0.000         0.000
  RDII Inflow ..............         0.000         0.000
  External Inflow ..........         0.105         1.045
  External Outflow .........         1.987        19.871
  Flooding Loss ............         3.321        33.214
  Evaporation Loss .........         0.000         0.000
  Exfiltration Loss ........         0.000         0.000
  Initial Stored Volume ....         0.076         0.761
  Final Stored Volume ......         0.601         6.007
  Continuity Error (%) .....        -0.041
  
  
  **************************           COD            SS            TN            TP         NH4-N
  Quality Routing Continuity            kg            kg            kg            kg            kg
  **************************    ----------    ----------    ----------    ----------    ----------
  Dry Weather Inflow .......      1573.993      2518.389       151.103        18.888        94.440
  Wet Weather Inflow .......      5075.891      9697.372        97.741         6.747        46.581
  Groundwater Inflow .......         0.000         0.000         0.000         0.000         0.000
  RDII Inflow ..............         0.000         0.000         0.000         0.000         0.000
  External Inflow ..........       187.321       299.713        17.983         2.248        11.239
  External Outflow .........      2179.207      3939.545       105.569        11.742        62.093
  Flooding Loss ............      3866.716      7205.475       130.507        13.017        72.740
  Exfiltration Loss ........         0.000         0.000         0.000         0.000         0.000
  Mass Reacted .............         0.000         0.000         0.000         0.000         0.000
  Initial Stored Mass ......         0.000         0.000         0.000         0.000         0.000
  Final Stored Mass ........       540.061       950.337        23.081         2.436        13.301
  Continuity Error (%) .....         3.674         3.357         2.875         2.464         2.710
  
  
  *************************
  Highest Continuity Errors
  *************************
  Node HS02004842 (11.61%)
  Node YS02001884 (8.36%)
  Node WS02003059 (6.08%)
  Node HS02004817 (2.22%)
  Node YSB1171 (2.08%)
  
  
  ***************************
  Time-Step Critical Elements
  ***************************
  Link WS02006252WS02006251 (94.79%)
  Link WS02006280WS02006229 (1.56%)
  
  
  ********************************
  Highest Flow Instability Indexes
  ********************************
  Link YS02163301YS02001633 (29)
  Link YS02163601YS02164001 (29)
  Link YS02001629YS02163301 (29)
  Link YS02001619YS02001622 (28)
  Link YS02164001YS02001641 (27)
  
  
  *************************
  Routing Time Step Summary
  *************************
  Minimum Time Step           :     0.41 sec
  Average Time Step           :     0.83 sec
  Maximum Time Step           :     5.00 sec
  Percent in Steady State     :    -0.00
  Average Iterations per Step :     3.77
  Percent Not Converging      :    11.92
  
  
  ***************************
  Subcatchment Runoff Summary
  ***************************
  
  ------------------------------------------------------------------------------------------------------------------------------
                            Total      Total      Total      Total     Imperv       Perv      Total       Total     Peak  Runoff
                           Precip      Runon       Evap      Infil     Runoff     Runoff     Runoff      Runoff   Runoff   Coeff
  Subcatchment                 mm         mm         mm         mm         mm         mm         mm    10^6 ltr      LPS
  ------------------------------------------------------------------------------------------------------------------------------
  sub0                      15.82       0.00       0.00       0.65      14.67       0.46      15.12        0.01     3.31   0.956
  sub1                      15.82       0.00       0.00       1.14      13.99       0.60      14.59        0.10    23.64   0.923
  sub2                      15.82       0.00       0.00       4.73       9.88       1.12      11.00        0.10    23.47   0.695
  sub3                      15.82       0.00       0.00       4.93       9.84       0.92      10.77        0.24    52.70   0.681
  sub4                      15.82       0.00       0.00       1.26      13.83       0.48      14.31        0.30    62.69   0.905
  sub5                      15.82       0.00       0.00       0.69      14.62       0.41      15.03        0.17    41.30   0.950
  sub7                      15.82       0.00       0.00       0.88      14.33       0.55      14.88        0.05    12.89   0.941
  sub8                      15.82       0.00       0.00       0.89      14.32       0.54      14.86        0.09    23.92   0.939
  sub9                      15.82       0.00       0.00       0.89      14.32       0.53      14.85        0.07    17.92   0.939
  sub10                     15.82       0.00       0.00       0.80      14.47       0.47      14.94        0.16    40.43   0.944
  sub11                     15.82       0.00       0.00       0.78      14.48       0.49      14.97        0.17    44.03   0.946
  sub12                     15.82       0.00       0.00       1.27      13.72       0.79      14.50        0.13    33.91   0.917
  sub14                     15.82       0.00       0.00       0.89      14.32       0.53      14.85        0.14    35.33   0.939
  sub15                     15.82       0.00       0.00       3.49      11.01       1.25      12.26        0.21    51.73   0.775
  sub16                     15.82       0.00       0.00       3.65      10.56       1.57      12.13        0.13    33.21   0.767
  sub17                     15.82       0.00       0.00       3.56      10.71       1.51      12.22        0.10    27.18   0.773
  sub22                     15.82       0.00       0.00       5.21       8.98       1.59      10.56        0.67   164.54   0.668
  sub23                     15.82       0.00       0.00       4.32       9.92       1.54      11.46        0.55   137.40   0.724
  sub60                     15.82       0.00       0.00       1.69      11.96       0.21      12.16        3.69   481.95   0.769
  sub61                     15.82       0.00       0.00       2.40      11.95       0.29      12.25        3.78   559.39   0.774
  sub62                     15.82       0.00       0.00       1.05      13.06       0.22      13.27        4.08   581.34   0.839
  sub63                     15.82       0.00       0.00       4.25      10.41       0.34      10.74        3.25   506.09   0.679
  sub64                     15.82       0.00       0.00       2.16      11.49       0.21      11.70        3.56   460.92   0.740
  sub65                     15.82       0.00       0.00       1.86      11.70       0.20      11.90        3.66   469.51   0.752
  sub66                     15.82       0.00       0.00       4.36       9.80       0.23      10.03        3.08   414.81   0.634
  sub67                     15.82       0.00       0.00       1.00      13.60       0.26      13.87        4.28   686.26   0.877
  sub68                     15.82       0.00       0.00       1.92      12.53       0.30      12.83        3.94   603.56   0.811
  sub69                     15.82       0.00       0.00       1.97      12.83       0.40      13.24        3.09   540.53   0.837
  sub70                     15.82      13.51       0.00       8.28      17.79       1.69      19.48        4.46   603.13   0.664
  sub71                     15.82       0.00       0.00       1.07      12.79       0.20      12.99        3.07   417.95   0.821
  sub72                     15.82       0.00       0.00       1.00      10.67       0.11      10.78        2.20   224.99   0.681
  1                         15.82      18.97       0.00       1.40      20.70       6.40      27.10        6.37   614.57   0.779
  2                         15.82       0.00       0.00       3.09       3.81       2.78       6.59        2.63   335.76   0.416
  
  
  ****************************
  Subcatchment Washoff Summary
  ****************************
  
  ------------------------------------------------------------------------------------------
                                 COD            SS            TN            TP         NH4-N
  Subcatchment                    kg            kg            kg            kg            kg
  ------------------------------------------------------------------------------------------
  sub0                         3.342         6.539         0.058         0.005         0.028
  sub1                        14.445        29.169         0.272         0.019         0.131
  sub2                         9.333        18.450         0.194         0.013         0.090
  sub3                        22.930        44.994         0.469         0.032         0.217
  sub4                        33.459        68.527         0.660         0.041         0.317
  sub5                        32.971        65.544         0.595         0.046         0.289
  sub7                         7.277        14.873         0.138         0.009         0.067
  sub8                        10.857        22.729         0.216         0.013         0.104
  sub9                         9.333        19.260         0.181         0.012         0.087
  sub10                       27.062        54.498         0.501         0.036         0.243
  sub11                       26.178        53.276         0.493         0.034         0.239
  sub12                       22.495        44.902         0.412         0.031         0.199
  sub14                       20.012        40.904         0.381         0.026         0.184
  sub15                       27.054        53.366         0.520         0.038         0.245
  sub16                       17.547        34.544         0.334         0.025         0.158
  sub17                       16.118        31.445         0.299         0.024         0.142
  sub22                       86.358       167.545         1.636         0.124         0.769
  sub23                       49.405        99.074         1.037         0.069         0.479
  sub60                      324.640       621.676         6.408         0.400         3.077
  sub61                      403.811       770.091         7.508         0.521         3.622
  sub62                      414.691       803.518         8.053         0.518         3.874
  sub63                      300.333       564.683         5.954         0.423         2.777
  sub64                      412.475       762.497         7.580         0.557         3.629
  sub65                      421.470       782.145         7.792         0.563         3.736
  sub66                      236.925       441.828         4.798         0.317         2.250
  sub67                      616.781      1183.082        11.126         0.827         5.390
  sub68                      441.387       849.607         8.413         0.576         4.031
  sub69                      395.759       769.131         7.420         0.528         3.559
  sub70                      689.482      1342.738        13.769         0.971         6.492
  sub71                      272.842       533.508         5.550         0.327         2.660
  sub72                      224.846       409.126         4.183         0.289         2.015
  1                          511.608      1001.637        10.376         0.732         4.846
  2                           58.701       105.692         1.622         0.098         0.695
  ------------------------------------------------------------------------------------------
  System                    6161.927     11810.599       118.947         8.246        56.641
  
  
  ******************
  Node Depth Summary
  ******************
  
  ---------------------------------------------------------------------------------
                                 Average  Maximum  Maximum  Time of Max    Reported
                                   Depth    Depth      HGL   Occurrence   Max Depth
  Node                 Type       Meters   Meters   Meters  days hr:min      Meters
  ---------------------------------------------------------------------------------
  WS02001211           JUNCTION     0.24     0.33     5.17     0  02:44        0.33
  WS02001212           JUNCTION     0.03     0.16     5.22     0  02:43        0.16
  WS02001213           JUNCTION     0.35     0.51     5.28     0  02:42        0.51
  WS02003069           JUNCTION     0.20     0.39     4.97     0  02:43        0.39
  WS02003072           JUNCTION     0.26     0.46     4.83     0  02:43        0.46
  WS02003073           JUNCTION     0.14     0.27     4.34     0  02:44        0.27
  WS02003060           JUNCTION     0.18     0.35     5.28     0  02:42        0.35
  WS02003066           JUNCTION     0.16     0.29     5.85     0  02:41        0.29
  WS02003059           JUNCTION     0.42     0.59     5.28     0  02:42        0.59
  WS02003067           JUNCTION     0.43     0.69     6.01     0  02:40        0.69
  WS02004401           JUNCTION     0.49     0.83     6.83     0  02:37        0.83
  WS02004402           JUNCTION     0.53     0.86     6.82     0  02:38        0.86
  WS02004403           JUNCTION     0.55     0.88     6.81     0  02:38        0.88
  WS02004404           JUNCTION     0.63     0.95     6.80     0  02:38        0.95
  WS02004406           JUNCTION     0.65     0.94     6.77     0  02:37        0.94
  WS02004409           JUNCTION     0.29     0.65     6.42     0  02:40        0.65
  WS02004410           JUNCTION     0.32     0.66     6.38     0  02:39        0.66
  WS02004411           JUNCTION     0.35     0.68     6.36     0  02:40        0.68
  WS02004412           JUNCTION     0.37     0.68     6.32     0  02:40        0.68
  WS02004413           JUNCTION     0.54     0.84     6.31     0  02:40        0.84
  WS02004405           JUNCTION     0.63     0.94     6.79     0  02:38        0.94
  WS02006109           JUNCTION     0.53     0.92     7.54     0  02:34        0.92
  WS02006110           JUNCTION     0.55     0.89     7.47     0  02:35        0.89
  WS02006111           JUNCTION     0.13     0.27     6.98     0  02:35        0.27
  WS02006112           JUNCTION     0.63     1.03     6.91     0  02:37        1.02
  WS02006113           JUNCTION     0.19     0.43     7.32     0  02:35        0.43
  WS02006115           JUNCTION     0.37     0.73     6.87     0  02:37        0.73
  WS02006116           JUNCTION     0.46     0.81     6.85     0  02:37        0.81
  WS02006230           JUNCTION     0.42     0.87     7.62     0  02:34        0.87
  WS02006231           JUNCTION     0.19     0.47     7.59     0  02:35        0.47
  WS02006232           JUNCTION     0.29     0.54     7.58     0  02:35        0.54
  WS02006234           JUNCTION     0.17     0.37     7.53     0  02:35        0.37
  WS02006235           JUNCTION     0.18     0.29     7.45     0  02:36        0.29
  WS02006238           JUNCTION     0.20     0.31     7.46     0  02:36        0.31
  WS02006240           JUNCTION     0.14     0.21     7.50     0  02:37        0.21
  WS02006242           JUNCTION     0.21     0.27     7.54     0  02:37        0.27
  WS02006243           JUNCTION     0.12     0.16     7.58     0  02:36        0.16
  WS02006245           JUNCTION     0.14     0.19     7.67     0  02:35        0.19
  WS02006247           JUNCTION     0.16     0.22     7.72     0  02:35        0.22
  WS02006248           JUNCTION     0.12     0.17     7.75     0  02:34        0.17
  WS02006249           JUNCTION     0.17     0.22     7.81     0  02:34        0.22
  WS02006239           JUNCTION     0.16     0.26     7.47     0  02:36        0.26
  WS02006251           JUNCTION     0.14     0.19     7.86     0  02:33        0.19
  WS02006252           JUNCTION     0.33     0.35     8.59     0  01:45        0.35
  WS02006253           JUNCTION     0.19     0.35     7.99     0  02:33        0.35
  WS02006256           JUNCTION     1.88     2.35     9.28     0  00:00        2.35
  WS02004138           JUNCTION     0.14     0.14     7.39     0  00:00        0.14
  WS02004139           JUNCTION     0.16     0.19     5.10     0  02:45        0.19
  WS02004407           JUNCTION     0.13     0.29     6.60     0  02:38        0.29
  WS02006228           JUNCTION     0.50     0.94     7.60     0  02:34        0.94
  WS02006229           JUNCTION     0.47     0.94     7.63     0  02:34        0.94
  WS02006280           JUNCTION     0.08     0.25     8.52     0  02:34        0.25
  WS02006284           JUNCTION     0.39     0.64     9.04     0  02:34        0.64
  WS02006287           JUNCTION     0.12     0.38     9.34     0  02:33        0.38
  WSF200               JUNCTION     0.13     0.28     5.51     0  02:40        0.28
  HS02004901           JUNCTION     0.15     0.36    10.19     0  02:32        0.36
  HS02004881           JUNCTION     0.01     0.05     9.08     0  02:33        0.05
  HS02004876           JUNCTION     0.05     0.16     9.19     0  02:33        0.16
  HS02004870           JUNCTION     0.02     0.09     9.38     0  02:33        0.09
  HS02004862           JUNCTION     0.03     0.11     9.49     0  02:33        0.11
  HS02004856           JUNCTION     0.09     0.15     9.57     0  02:33        0.15
  HS02004852           JUNCTION     0.02     0.07     9.58     0  02:33        0.07
  HS02004848           JUNCTION     0.02     0.07     9.67     0  02:33        0.07
  HS02004842           JUNCTION     0.34     0.40     9.67     0  02:33        0.40
  HS02004837           JUNCTION     0.03     0.09     9.67     0  02:33        0.09
  HS02004830           JUNCTION     0.05     0.10     9.57     0  02:34        0.10
  HS02004824           JUNCTION     0.03     0.12     9.53     0  02:34        0.12
  HS02004817           JUNCTION     0.47     0.69     9.54     0  02:34        0.69
  HS02004807           JUNCTION     0.15     0.36     9.53     0  02:34        0.36
  HS02004802           JUNCTION     0.18     0.39     9.52     0  02:34        0.39
  HS02004799           JUNCTION     0.15     0.45     9.66     0  02:32        0.45
  HS02004792           JUNCTION     0.05     0.21     9.73     0  02:32        0.21
  HS02004788           JUNCTION     0.04     0.15    10.05     0  02:33        0.15
  HS02004785           JUNCTION     0.06     0.24    10.14     0  02:32        0.24
  HS02004777           JUNCTION     0.17     0.38    10.18     0  02:32        0.38
  HS02004770           JUNCTION     0.14     0.36    10.19     0  02:32        0.36
  HS02004480           JUNCTION     0.11     0.37     9.61     0  02:32        0.37
  HS02004479           JUNCTION     0.14     0.41     9.61     0  02:32        0.41
  HS02004478           JUNCTION     0.08     0.27     9.50     0  02:33        0.27
  YS02001745           JUNCTION     0.75     0.98     8.50     0  03:01        0.98
  YS02001748           JUNCTION     1.15     1.86     8.94     0  02:21        1.41
  YS02001751           JUNCTION     1.34     1.81     8.69     0  02:21        1.59
  YS02001754           JUNCTION     1.60     1.87     8.48     0  02:21        1.85
  YS02001762           JUNCTION     1.80     2.05     8.45     0  03:01        2.05
  YS02001765           JUNCTION     1.75     2.00     8.45     0  03:01        2.00
  YS02001767           JUNCTION     1.72     1.95     8.44     0  03:01        1.95
  YS02001770           JUNCTION     1.71     1.94     8.44     0  03:00        1.94
  YS02001774           JUNCTION     1.78     1.99     8.41     0  03:00        1.99
  YS02001779           JUNCTION     1.52     1.68     8.37     0  02:21        1.68
  YS02001882           JUNCTION     0.68     1.64     8.35     0  02:41        1.63
  YS02001884           JUNCTION     0.77     1.74     8.35     0  02:37        1.73
  YS02001759           JUNCTION     1.84     2.09     8.45     0  03:01        2.09
  YS02001887           JUNCTION     0.85     1.81     8.35     0  02:43        1.81
  YS02001890           JUNCTION     0.88     1.81     8.32     0  02:26        1.81
  YS02001898           JUNCTION     0.64     1.56     8.30     0  02:26        1.56
  YS02001901           JUNCTION     0.76     1.68     8.29     0  02:32        1.67
  YS02001904           JUNCTION     0.74     1.64     8.27     0  02:27        1.63
  YS02001907           JUNCTION     1.07     1.96     8.25     0  02:26        1.96
  YS02001910           JUNCTION     0.86     1.80     8.31     0  02:27        1.78
  YS02001915           JUNCTION     0.66     1.62     8.34     0  02:27        1.60
  YS02001918           JUNCTION     0.40     1.32     8.39     0  02:27        1.30
  YS02001619           JUNCTION     1.30     1.49     8.41     0  02:45        1.48
  YS02001629           JUNCTION     1.66     1.85     8.40     0  02:20        1.84
  YS02001641           JUNCTION     1.76     1.94     8.38     0  02:20        1.93
  YS02001644           JUNCTION     1.76     1.92     8.35     0  02:20        1.92
  YS02001652           JUNCTION     1.61     2.09     8.69     0  02:31        1.92
  YS02001655           JUNCTION     1.37     2.16     9.01     0  02:29        1.75
  YS02001920           JUNCTION     0.50     1.41     8.42     0  02:27        1.39
  YS02001923           JUNCTION     0.32     1.18     8.44     0  02:27        1.16
  YS02001926           JUNCTION     0.35     1.16     8.60     0  02:27        0.94
  YS02001929           JUNCTION     0.21     0.80     8.49     0  02:27        0.72
  YS02001658           JUNCTION     1.10     2.18     9.33     0  02:29        1.55
  YS02001661           JUNCTION     0.86     2.28     9.68     0  02:29        1.48
  YS02001664           JUNCTION     0.39     0.57     8.49     0  04:12        0.56
  YS02001622           JUNCTION     1.32     1.50     8.41     0  02:44        1.50
  YS02001633           JUNCTION     1.75     1.97     8.42     0  02:20        1.94
  YS02001649           JUNCTION     1.81     2.05     8.44     0  02:26        2.05
  YS02001757           JUNCTION     1.94     2.19     8.45     0  03:03        2.19
  YS02001895           JUNCTION     0.64     1.57     8.31     0  02:37        1.56
  YS02001625           JUNCTION     1.61     1.78     8.38     0  02:18        1.78
  YS02163301           JUNCTION     1.69     1.90     8.41     0  02:20        1.88
  YS02163601           JUNCTION     1.80     2.01     8.41     0  02:20        1.98
  YS02164001           JUNCTION     1.74     1.93     8.39     0  02:20        1.91
  YS02001647           JUNCTION     1.59     1.81     8.42     0  02:29        1.79
  YSB1154              JUNCTION     0.28     0.56     9.62     0  02:32        0.56
  YSB6556              JUNCTION     0.18     0.45     9.61     0  02:32        0.45
  YSB1174              JUNCTION     0.24     0.51     9.61     0  02:32        0.51
  YSB1171              JUNCTION     0.44     0.71     9.61     0  02:32        0.71
  YS02006553           JUNCTION     1.07     2.11     8.40     0  02:33        1.97
  YS02006561           JUNCTION     0.40     1.59     8.25     0  02:33        1.09
  YS02006556           JUNCTION     1.04     2.26     8.57     0  02:33        1.93
  YS02006558           JUNCTION     1.08     2.36     8.63     0  02:33        1.97
  YS02001783           JUNCTION     0.63     2.08     8.22     0  02:33        1.47
  YS02001784           JUNCTION     0.64     2.12     8.19     0  02:33        1.42
  YS02001786           JUNCTION     0.56     2.03     8.06     0  02:33        1.26
  YS02001788           JUNCTION     0.46     2.28     8.26     0  02:33        1.13
  YS02001790           JUNCTION     0.55     1.96     7.60     0  02:33        1.29
  YS02001791           JUNCTION     0.48     1.56     7.03     0  02:32        1.27
  YS02001793           JUNCTION     0.60     1.80     6.64     0  02:35        1.80
  WSC                  OUTFALL      0.14     0.27     0.94     0  02:44        0.27
  3                    OUTFALL      0.00     0.00     7.16     0  00:00        0.00
  4                    OUTFALL      0.00     0.00     7.67     0  00:00        0.00
  5                    OUTFALL      0.00     0.00     4.91     0  00:00        0.00
  JK-storage           STORAGE      1.93     5.80     6.60     0  02:34        5.80
  CC-storage           STORAGE      1.15     1.45     8.45     0  03:09        1.45
  XR-storage           STORAGE      7.58     7.72     5.72     0  02:00        7.72
  
  
  *******************
  Node Inflow Summary
  *******************
  
  -------------------------------------------------------------------------------------------------
                                  Maximum  Maximum                  Lateral       Total        Flow
                                  Lateral    Total  Time of Max      Inflow      Inflow     Balance
                                   Inflow   Inflow   Occurrence      Volume      Volume       Error
  Node                 Type           LPS      LPS  days hr:min    10^6 ltr    10^6 ltr     Percent
  -------------------------------------------------------------------------------------------------
  WS02001211           JUNCTION      7.35    78.85     0  02:43       0.212       0.457       1.324
  WS02001212           JUNCTION      0.00    71.60     0  02:42           0       0.242       0.018
  WS02001213           JUNCTION      0.00    71.84     0  02:41           0       0.252       3.451
  WS02003069           JUNCTION      0.32   456.82     0  02:43     0.00922        3.44       0.149
  WS02003072           JUNCTION      0.00   456.79     0  02:43           0        3.43       0.244
  WS02003073           JUNCTION      1.82   458.58     0  02:44      0.0524        3.48       0.208
  WS02003060           JUNCTION     16.53   528.59     0  02:41       0.476        3.71       0.130
  WS02003066           JUNCTION      0.00   512.02     0  02:40           0        3.23       0.050
  WS02003059           JUNCTION      0.00    72.79     0  02:39           0       0.277       6.475
  WS02003067           JUNCTION      0.00   511.98     0  02:40           0        3.23       0.141
  WS02004401           JUNCTION      0.00   514.88     0  02:36           0        3.34       0.335
  WS02004402           JUNCTION      0.00   514.53     0  02:37           0        3.33       0.338
  WS02004403           JUNCTION      0.00   514.34     0  02:37           0        3.32       0.326
  WS02004404           JUNCTION      0.16   514.40     0  02:37     0.00467        3.31       0.266
  WS02004406           JUNCTION      0.00   514.40     0  02:38           0        3.29       0.659
  WS02004409           JUNCTION      0.00   514.32     0  02:38           0        3.27       0.113
  WS02004410           JUNCTION      0.00   513.51     0  02:39           0        3.27       0.168
  WS02004411           JUNCTION      0.00   512.86     0  02:39           0        3.26       0.204
  WS02004412           JUNCTION      0.00   512.42     0  02:39           0        3.25       0.263
  WS02004413           JUNCTION      0.00   512.13     0  02:40           0        3.25       0.461
  WS02004405           JUNCTION      0.04   514.41     0  02:37      0.0011        3.31       0.411
  WS02006109           JUNCTION      1.23   490.97     0  02:34      0.0354        3.29       0.341
  WS02006110           JUNCTION      0.00   490.97     0  02:35           0        3.28       0.302
  WS02006111           JUNCTION      0.00   507.75     0  02:35           0        3.27       0.028
  WS02006112           JUNCTION     27.18   519.21     0  02:35       0.105        3.37       0.460
  WS02006113           JUNCTION      0.00   491.12     0  02:35           0        3.27       0.071
  WS02006115           JUNCTION      0.00   517.95     0  02:37           0        3.36       0.275
  WS02006116           JUNCTION      0.00   515.52     0  02:36           0        3.35       0.207
  WS02006230           JUNCTION     10.28   182.37     0  02:34       0.296        1.08       0.432
  WS02006231           JUNCTION      0.00   182.07     0  02:34           0       0.829       0.048
  WS02006232           JUNCTION      0.00   181.88     0  02:35           0       0.832       0.520
  WS02006234           JUNCTION      0.00   181.88     0  02:35           0       0.832       0.004
  WS02006235           JUNCTION      0.00   518.28     0  02:36           0        6.61       0.034
  WS02006238           JUNCTION      0.00    56.68     0  02:40           0       0.762       0.193
  WS02006240           JUNCTION      0.00    56.31     0  02:37           0       0.757       0.244
  WS02006242           JUNCTION      0.00    56.39     0  02:36           0       0.761       0.554
  WS02006243           JUNCTION      0.00    56.40     0  02:35           0       0.763       0.200
  WS02006245           JUNCTION      0.00    56.41     0  02:35           0       0.765       0.333
  WS02006247           JUNCTION      0.00    56.43     0  02:34           0       0.767       0.279
  WS02006248           JUNCTION      0.00    56.44     0  02:34           0       0.768       0.087
  WS02006249           JUNCTION      0.00    56.46     0  02:33           0       0.771       0.432
  WS02006239           JUNCTION      0.00    56.38     0  02:38           0       0.759       0.262
  WS02006251           JUNCTION      0.08   339.50     0  02:33     0.00222         5.1       0.028
  WS02006252           JUNCTION      0.00   200.00     0  01:45           0        4.52       0.009
  WS02006253           JUNCTION      3.31   139.43     0  02:33      0.0122       0.575       0.353
  WS02006256           JUNCTION      0.00   683.00     0  00:00           0        9.81      -0.016
  WS02004138           JUNCTION      0.00   190.00     0  00:00           0        5.47       0.071
  WS02004139           JUNCTION      0.32   268.96     0  02:44     0.00924        5.93       0.076
  WS02004407           JUNCTION      0.00   514.35     0  02:38           0        3.27       0.053
  WS02006228           JUNCTION      0.00   489.75     0  02:34           0        3.27       0.213
  WS02006229           JUNCTION      0.00   661.74     0  02:34           0        3.62       0.212
  WS02006280           JUNCTION      0.00   661.73     0  02:34           0        2.93       0.002
  WS02006284           JUNCTION      0.10   661.67     0  02:34     0.00275        2.93       0.033
  WS02006287           JUNCTION      0.00   661.52     0  02:34           0        2.93       0.024
  WSF200               JUNCTION      0.00   512.01     0  02:41           0        3.22       0.024
  HS02004901           JUNCTION     33.21    33.21     0  02:30       0.127       0.127       1.404
  HS02004881           JUNCTION     12.89   136.39     0  02:33      0.0501       0.563       0.011
  HS02004876           JUNCTION     23.64   123.95     0  02:33       0.097       0.513       0.105
  HS02004870           JUNCTION     23.92   100.55     0  02:33      0.0949       0.416       0.027
  HS02004862           JUNCTION     23.67    77.30     0  02:33       0.108       0.322       0.054
  HS02004856           JUNCTION     17.92    53.69     0  02:33      0.0714       0.215       0.678
  HS02004852           JUNCTION      0.00    36.22     0  02:33           0       0.143       0.039
  HS02004848           JUNCTION     52.70    52.70     0  02:35       0.242       0.242       0.021
  HS02004842           JUNCTION      0.00    17.48     0  02:44           0       0.112      13.139
  HS02004837           JUNCTION     46.78    62.52     0  02:33       0.348       0.447       0.183
  HS02004830           JUNCTION      0.15    62.64     0  02:33     0.00432       0.437       0.283
  HS02004824           JUNCTION     62.74   125.28     0  02:35         0.3       0.736       0.074
  HS02004817           JUNCTION      0.60   126.41     0  02:36      0.0173       0.752       2.266
  HS02004807           JUNCTION     44.03   168.11     0  02:35       0.174        0.91       0.481
  HS02004802           JUNCTION      0.00   168.61     0  02:35           0       0.908       0.437
  HS02004799           JUNCTION     35.33   421.61     0  02:32       0.141        1.74       0.157
  HS02004792           JUNCTION    164.82   386.80     0  02:32       0.675         1.6       0.026
  HS02004788           JUNCTION     53.40   222.79     0  02:32       0.259       0.928       0.043
  HS02004785           JUNCTION      0.15   169.63     0  02:32     0.00432        0.67       0.073
  HS02004777           JUNCTION      0.03   169.68     0  02:31    0.000864        0.67       0.780
  HS02004770           JUNCTION    137.40   170.17     0  02:31       0.546       0.672       0.463
  HS02004480           JUNCTION      0.00   494.75     0  02:32           0        2.04       0.055
  HS02004479           JUNCTION      0.00    73.31     0  02:32           0       0.305       0.240
  HS02004478           JUNCTION      0.00   661.49     0  02:33           0        2.93       0.010
  YS02001745           JUNCTION    481.95   481.95     0  03:01        3.69        3.69       0.306
  YS02001748           JUNCTION      0.04   481.97     0  03:00      0.0013        3.68       0.635
  YS02001751           JUNCTION      0.01   481.98     0  03:00    0.000317        3.65       0.655
  YS02001754           JUNCTION      0.26   482.24     0  03:00     0.00749        3.64       0.680
  YS02001762           JUNCTION      0.00   405.13     0  02:26           0        2.28       0.924
  YS02001765           JUNCTION      0.00   405.18     0  02:26           0        2.29       1.067
  YS02001767           JUNCTION      0.54   405.16     0  02:26      0.0154        2.31       1.566
  YS02001770           JUNCTION    581.50   804.65     0  03:01        4.08        4.81       0.661
  YS02001774           JUNCTION      0.00   804.70     0  03:01           0        3.22       0.781
  YS02001779           JUNCTION      0.01   804.76     0  03:01    0.000144        3.19       0.483
  YS02001882           JUNCTION      0.00    24.86     0  02:21           0      0.0355       6.255
  YS02001884           JUNCTION      0.00    28.38     0  02:16           0      0.0731       9.126
  YS02001759           JUNCTION    559.43   811.95     0  02:27        3.78         5.3       0.430
  YS02001887           JUNCTION    686.71   686.72     0  02:47        4.29        4.32       0.197
  YS02001890           JUNCTION      0.00   686.73     0  02:47           0        4.27       0.217
  YS02001898           JUNCTION      0.00   528.45     0  02:26           0        3.94       0.076
  YS02001901           JUNCTION      0.00   528.10     0  02:26           0        3.94       0.175
  YS02001904           JUNCTION      0.00   528.42     0  02:26           0        3.93       0.151
  YS02001907           JUNCTION      0.00  1162.30     0  03:00           0        9.25       0.268
  YS02001910           JUNCTION      0.00   645.90     0  03:00           0        5.33       0.228
  YS02001915           JUNCTION    417.97   645.89     0  03:00        3.07        5.37       0.108
  YS02001918           JUNCTION      0.00   316.20     0  02:28           0        2.32       0.065
  YS02001619           JUNCTION    414.81   414.81     0  03:01        3.07        3.07       0.401
  YS02001629           JUNCTION      0.00   232.52     0  02:22           0         1.6       1.843
  YS02001641           JUNCTION      0.00   488.81     0  02:23           0        4.91       0.425
  YS02001644           JUNCTION    460.96  1692.52     0  03:01        3.56        12.7       0.204
  YS02001652           JUNCTION      0.00   517.82     0  02:43           0         3.2       0.727
  YS02001655           JUNCTION      0.15   518.00     0  02:43     0.00443        3.22       0.775
  YS02001920           JUNCTION      2.87   316.35     0  02:28      0.0827         2.3       0.129
  YS02001923           JUNCTION      0.04   289.15     0  02:28     0.00109        2.21       0.045
  YS02001926           JUNCTION      0.05   227.94     0  03:00      0.0015         2.2       0.155
  YS02001929           JUNCTION    224.99   224.99     0  03:01         2.2         2.2       0.030
  YS02001658           JUNCTION      0.00   531.51     0  02:38           0        3.24       0.709
  YS02001661           JUNCTION      0.00   765.02     0  02:30           0        3.92       0.045
  YS02001664           JUNCTION    506.09   506.09     0  02:51        3.25        3.93       0.179
  YS02001622           JUNCTION      0.00   414.81     0  03:01           0        3.06       1.046
  YS02001633           JUNCTION    469.71   488.86     0  02:23        3.66        5.09       0.632
  YS02001649           JUNCTION      0.00  1049.46     0  02:24           0        6.72       0.549
  YS02001757           JUNCTION      0.00  2079.58     0  02:24           0        10.5       0.884
  YS02001895           JUNCTION      0.00   528.25     0  02:26           0        3.94       0.128
  YS02001625           JUNCTION      0.00   497.27     0  03:01           0        3.15       1.241
  YS02163301           JUNCTION      0.00   232.64     0  02:22           0        1.58       1.536
  YS02163601           JUNCTION      0.11   488.97     0  02:23     0.00317        4.93       0.610
  YS02164001           JUNCTION      0.00   488.93     0  02:23           0        4.91       0.406
  YS02001647           JUNCTION      0.00   846.33     0  03:02           0        5.77       0.492
  YSB1154              JUNCTION     41.30    41.30     0  02:31        0.17       0.171       0.854
  YSB6556              JUNCTION      0.00    41.08     0  02:31           0       0.172       0.732
  YSB1174              JUNCTION     33.91    33.91     0  02:29       0.127       0.127       1.021
  YSB1171              JUNCTION      0.00    73.51     0  02:31           0       0.304       2.125
  YS02006553           JUNCTION      0.00   689.45     0  02:26           0        7.07       0.224
  YS02006561           JUNCTION      0.00  1146.75     0  02:32           0          11       0.005
  YS02006556           JUNCTION      0.00   689.17     0  02:26           0        7.07       0.160
  YS02006558           JUNCTION    604.44  1147.16     0  02:32        3.97          11       0.049
  YS02001783           JUNCTION      0.00  1146.70     0  02:31           0          11       0.024
  YS02001784           JUNCTION      1.06  1147.79     0  02:31      0.0305          11       0.036
  YS02001786           JUNCTION      0.06  1147.80     0  02:31     0.00162          11       0.034
  YS02001788           JUNCTION      0.07  1148.08     0  02:32     0.00204          11       0.020
  YS02001790           JUNCTION      0.15  1159.63     0  02:31     0.00446          11       0.028
  YS02001791           JUNCTION      0.00  1261.51     0  02:27           0          11       0.009
  YS02001793           JUNCTION      0.00  1210.24     0  02:27           0          11       0.002
  WSC                  OUTFALL       0.00   458.49     0  02:44           0        3.47       0.000
  3                    OUTFALL       0.00   518.27     0  02:36           0        6.16       0.000
  4                    OUTFALL       0.00   283.04     0  02:33           0        4.32       0.000
  5                    OUTFALL       0.00   268.94     0  02:45           0        5.92       0.000
  JK-storage           STORAGE       0.00  1233.51     0  02:27           0        11.2      -0.254
  CC-storage           STORAGE       0.00  2079.46     0  02:24           0        8.32       0.782
  XR-storage           STORAGE    1136.02  1136.02     0  03:01        14.8        15.4      -0.000
  
  
  **********************
  Node Surcharge Summary
  **********************
  
  Surcharging occurs when water rises above the top of the highest conduit.
  ---------------------------------------------------------------------
                                               Max. Height   Min. Depth
                                   Hours       Above Crown    Below Rim
  Node                 Type      Surcharged         Meters       Meters
  ---------------------------------------------------------------------
  WS02006109           JUNCTION        0.60          0.098        1.722
  WS02006112           JUNCTION        0.23          0.029        1.651
  WS02006256           JUNCTION        6.53          2.050        0.000
  WS02006228           JUNCTION        0.58          0.114        2.086
  YS02001748           JUNCTION        5.64          0.781        0.409
  YS02001751           JUNCTION        5.72          0.808        0.392
  YS02001754           JUNCTION        5.82          0.818        0.332
  YS02001762           JUNCTION        6.05          1.049        0.101
  YS02001765           JUNCTION        6.03          0.997        0.103
  YS02001767           JUNCTION        6.01          0.954        0.076
  YS02001770           JUNCTION        5.99          0.912        0.008
  YS02001774           JUNCTION        6.04          0.988        0.062
  YS02001779           JUNCTION        5.82          0.680        0.000
  YS02001882           JUNCTION        1.58          0.636        0.194
  YS02001884           JUNCTION        1.61          0.678        0.192
  YS02001759           JUNCTION        6.07          1.088        0.122
  YS02001887           JUNCTION        1.70          0.764        0.186
  YS02001890           JUNCTION        1.73          0.760        0.000
  YS02001898           JUNCTION        1.54          0.533        0.207
  YS02001901           JUNCTION        1.66          0.677        0.193
  YS02001904           JUNCTION        1.64          0.638        0.212
  YS02001907           JUNCTION        2.21          0.950        0.000
  YS02001910           JUNCTION        1.78          0.798        0.302
  YS02001915           JUNCTION        1.57          0.623        0.377
  YS02001918           JUNCTION        1.33          0.324        0.486
  YS02001619           JUNCTION        5.74          0.486        0.124
  YS02001629           JUNCTION        5.74          0.470        0.000
  YS02001641           JUNCTION        6.04          0.938        0.162
  YS02001644           JUNCTION        6.04          0.920        0.000
  YS02001652           JUNCTION        5.84          1.061        0.069
  YS02001655           JUNCTION        5.74          1.157        0.043
  YS02001920           JUNCTION        1.36          0.414        0.726
  YS02001926           JUNCTION        0.01          0.160        0.740
  YS02001658           JUNCTION        5.65          1.185        0.115
  YS02001661           JUNCTION        0.40          1.205        0.185
  YS02001622           JUNCTION        5.75          0.505        0.115
  YS02001633           JUNCTION        6.02          0.948        0.112
  YS02001649           JUNCTION        6.06          1.050        0.000
  YS02001757           JUNCTION        6.14          1.186        0.024
  YS02001895           JUNCTION        1.55          0.566        0.184
  YS02001625           JUNCTION        5.93          0.780        0.000
  YS02163301           JUNCTION        6.00          0.898        0.132
  YS02163601           JUNCTION        6.06          1.008        0.072
  YS02164001           JUNCTION        6.03          0.935        0.165
  YS02001647           JUNCTION        5.86          0.807        0.093
  YS02006553           JUNCTION        2.26          1.114        0.076
  YS02006561           JUNCTION        1.41          0.789        0.361
  YS02006556           JUNCTION        1.97          1.219        0.131
  YS02006558           JUNCTION        1.94          1.263        0.137
  YS02001783           JUNCTION        1.94          1.278        0.322
  YS02001784           JUNCTION        1.93          1.321        0.169
  YS02001786           JUNCTION        1.85          1.231        0.199
  YS02001788           JUNCTION        1.71          1.480        0.000
  YS02001790           JUNCTION        1.79          1.157        0.000
  YS02001791           JUNCTION        1.82          0.759        1.161
  YS02001793           JUNCTION        1.91          0.804        1.796
  
  
  *********************
  Node Flooding Summary
  *********************
  
  Flooding refers to all water that overflows a node, whether it ponds or not.
  --------------------------------------------------------------------------
                                                             Total   Maximum
                                 Maximum   Time of Max       Flood    Ponded
                        Hours       Rate    Occurrence      Volume     Depth
  Node                 Flooded       LPS   days hr:min    10^6 ltr    Meters
  --------------------------------------------------------------------------
  WS02006256              3.84    678.53      0  00:00       4.347     0.000
  YS02001779              3.23    804.76      0  03:01       3.168     0.000
  YS02001890              0.74    170.53      0  02:46       0.324     0.000
  YS02001907              1.18    787.51      0  02:57       2.168     0.000
  YS02001629              0.01      1.49      0  02:20       0.000     0.000
  YS02001644              5.52   1692.50      0  03:01      11.229     0.000
  YS02001649              0.08     39.74      0  02:29       0.002     0.000
  YS02001625              1.78    497.27      0  03:01       1.643     0.000
  YS02001788              0.01     70.71      0  02:33       0.000     0.000
  YS02001790              0.01     10.90      0  02:33       0.000     0.000
  JK-storage              1.67    316.44      0  02:34       1.372     0.000
  XR-storage              5.99    946.01      0  03:01       8.960     0.000
  
  
  **********************
  Storage Volume Summary
  **********************
  
  --------------------------------------------------------------------------------------------------
                         Average     Avg  Evap Exfil       Maximum     Max    Time of Max    Maximum
                          Volume    Pcnt  Pcnt  Pcnt        Volume    Pcnt     Occurrence    Outflow
  Storage Unit           1000 m3    Full  Loss  Loss       1000 m3    Full    days hr:min        LPS
  --------------------------------------------------------------------------------------------------
  JK-storage               0.097      33     0     0         0.291     100       0  02:34     683.00
  CC-storage               3.215      20     0     0         4.034      26       0  03:09     200.00
  XR-storage               0.910      98     0     0         0.926     100       0  02:00     190.00
  
  
  ***********************
  Outfall Loading Summary
  ***********************
  
  ---------------------------------------------------------------------------------------------------------------------------------
                         Flow       Avg       Max       Total         Total         Total         Total         Total         Total
                         Freq      Flow      Flow      Volume           COD            SS            TN            TP         NH4-N
  Outfall Node           Pcnt       LPS       LPS    10^6 ltr            kg            kg            kg            kg            kg
  ---------------------------------------------------------------------------------------------------------------------------------
  WSC                   99.99    143.70    458.49       3.469       480.639       883.949        22.472         2.492        13.156
  3                     99.99    255.96    518.27       6.157       423.440       816.458         8.419         0.613         4.123
  4                     99.99    181.34    283.04       4.324       427.070       812.971         8.376         0.580         4.045
  5                    100.00    207.74    268.94       5.920       848.171      1426.351        66.312         8.059        40.776
  ---------------------------------------------------------------------------------------------------------------------------------
  System                99.99    788.74   1501.86      19.871      2179.320      3939.728       105.579        11.744        62.099
  
  
  ********************
  Link Flow Summary
  ********************
  
  -----------------------------------------------------------------------------
                                 Maximum  Time of Max   Maximum    Max/    Max/
                                  |Flow|   Occurrence   |Veloc|    Full    Full
  Link                 Type          LPS  days hr:min     m/sec    Flow   Depth
  -----------------------------------------------------------------------------
  WS02003066WSF200     CONDUIT    512.01     0  02:41      2.85    0.09    0.22
  WS02006287WS02006284 CONDUIT    661.58     0  02:34      2.37    0.31    0.39
  WS02006284WS02006280 CONDUIT    661.73     0  02:34      2.60    0.28    0.36
  WS02006280WS02006229 CONDUIT    661.74     0  02:34      4.22    0.14    0.25
  WS02006229WS02006228 CONDUIT    489.75     0  02:34      0.97    1.62    1.00
  WS02006256WS02006235 CONDUIT    289.81     0  03:01      4.46    3.07    0.98
  WS02006253WS02006251 CONDUIT    139.43     0  02:33      0.93    0.42    0.41
  WS02006252WS02006251 CONDUIT    200.60     0  01:45      1.97    0.74    0.76
  WS02006251WS02006249 CONDUIT     56.46     0  02:33      0.60    0.16    0.29
  WS02006249WS02006248 CONDUIT     56.44     0  02:34      0.71    0.31    0.26
  WS02006248WS02006247 CONDUIT     56.43     0  02:34      0.68    0.12    0.27
  WS02006247WS02006245 CONDUIT     56.41     0  02:35      0.63    0.45    0.28
  WS02006245WS02006243 CONDUIT     56.40     0  02:35      0.77    0.17    0.24
  WS02006243WS02006242 CONDUIT     56.39     0  02:36      0.67    0.12    0.29
  WS02006242WS02006240 CONDUIT     56.31     0  02:37      0.50    0.22    0.33
  WS02006240WS02006239 CONDUIT     56.38     0  02:38      0.65    0.18    0.30
  WS02006239WS02006238 CONDUIT     56.68     0  02:40      0.53    0.18    0.39
  WS02006238WS02006235 CONDUIT     57.01     0  02:40      1.18    0.13    0.43
  WS02006235WS02006234 CONDUIT    181.93     0  02:35      1.08    1.92    0.45
  WS02006234WS02006232 CONDUIT    181.88     0  02:35      0.82    0.37    0.65
  WS02006232WS02006231 CONDUIT    181.88     0  02:35      0.62    0.38    0.71
  WS02006231WS02006230 CONDUIT    182.07     0  02:34      0.65    2.76    0.68
  WS02006230WS02006229 CONDUIT    172.09     0  02:34      0.45    3.83    1.00
  WS02006228WS02006109 CONDUIT    489.74     0  02:34      0.97    2.14    1.00
  WS02006116WS02004401 CONDUIT    514.88     0  02:36      0.75    0.71    0.82
  WS02006115WS02006116 CONDUIT    515.52     0  02:36      0.86    0.66    0.74
  WS02006113WS02006111 CONDUIT    507.75     0  02:35      2.38    0.61    0.44
  WS02006112WS02006115 CONDUIT    517.95     0  02:37      0.72    0.31    0.86
  WS02006111WS02006112 CONDUIT    493.37     0  02:35      1.39    0.23    0.66
  WS02006110WS02006113 CONDUIT    491.12     0  02:35      1.18    0.45    0.77
  WS02006109WS02006110 CONDUIT    490.97     0  02:35      0.98    0.94    0.99
  WS02004411WS02004412 CONDUIT    512.42     0  02:39      0.90    0.73    0.68
  WS02004401WS02004402 CONDUIT    514.53     0  02:37      0.73    0.62    0.85
  WS02004413WS02003067 CONDUIT    511.98     0  02:40      1.08    0.22    0.58
  WS02004412WS02004413 CONDUIT    512.13     0  02:40      0.86    0.34    0.76
  WS02004410WS02004411 CONDUIT    512.86     0  02:39      0.92    0.70    0.67
  WS02004409WS02004410 CONDUIT    513.51     0  02:39      0.94    0.66    0.66
  WS02004407WS02004409 CONDUIT    514.32     0  02:38      1.43    0.18    0.47
  WS02004406WS02004407 CONDUIT    514.35     0  02:38      1.01    0.23    0.62
  WS02004405WS02004406 CONDUIT    514.40     0  02:38      0.67    1.01    0.94
  WS02004404WS02004405 CONDUIT    514.37     0  02:37      0.67    5.04    0.94
  WS02004403WS02004404 CONDUIT    514.24     0  02:37      0.68    0.37    0.91
  WS02004402WS02004403 CONDUIT    514.34     0  02:37      0.71    0.74    0.87
  WS02004139WS02001211 CONDUIT     78.64     0  02:44      0.59    0.10    0.17
  WS02004138WS02004139 CONDUIT    191.48     0  00:00      2.95    0.04    0.14
  WS02003067WS02003066 CONDUIT    512.02     0  02:40      1.18    0.16    0.41
  WS02001213WS02003059 CONDUIT     71.84     0  02:41      0.17    0.12    0.54
  WS02001212WS02001213 CONDUIT     71.60     0  02:42      0.77    0.11    0.18
  WS02001211WS02001212 CONDUIT     71.50     0  02:43      0.48    0.05    0.25
  WS02003072WS02003073 CONDUIT    456.75     0  02:44      1.34    0.99    0.34
  WS02003069WS02003072 CONDUIT    456.79     0  02:43      1.29    0.22    0.35
  WS02003060WS02003069 CONDUIT    456.50     0  02:43      1.57    0.18    0.30
  WS02003059WS02003060 CONDUIT     72.79     0  02:39      0.56    0.05    0.47
  HS02004901HS02004770 CONDUIT     32.81     0  02:31      0.09    0.12    0.51
  HS02004876HS02004881 CONDUIT    123.95     0  02:33      1.19    1.32    0.15
  HS02004870HS02004876 CONDUIT    100.52     0  02:33      0.81    0.07    0.18
  HS02004842HS02004848 CONDUIT     17.48     0  02:44      0.08    0.01    0.33
  HS02004837HS02004842 CONDUIT     17.87     0  02:44      0.42    0.01    0.35
  HS02004830HS02004837 CONDUIT     62.49     0  02:33      0.66    0.06    0.14
  HS02004824HS02004830 CONDUIT     62.61     0  02:34      0.62    0.08    0.16
  HS02004817HS02004824 CONDUIT    125.81     0  02:36      0.31    0.06    0.58
  HS02004770HS02004777 CONDUIT    169.65     0  02:31      0.46    0.31    0.52
  HS02004799HS02004480 CONDUIT    421.51     0  02:32      1.04    0.53    0.58
  HS02004792HS02004799 CONDUIT    386.73     0  02:32      1.17    0.24    0.47
  HS02004788HS02004792 CONDUIT    222.73     0  02:33      1.24    0.15    0.26
  HS02004785HS02004788 CONDUIT    169.60     0  02:33      0.87    1.28    0.28
  HS02004777HS02004785 CONDUIT    169.48     0  02:32      0.55    0.21    0.44
  HS02004480HS02004478 CONDUIT    494.80     0  02:33      1.52    2.08    0.47
  HS02004479HS02004480 CONDUIT     73.26     0  02:33      0.31    0.07    0.55
  HS02004862HS02004870 CONDUIT     77.29     0  02:34      0.79    0.08    0.14
  HS02004848HS02004852 CONDUIT     36.22     0  02:33      0.52    0.04    0.10
  HS02004856HS02004862 CONDUIT     53.65     0  02:33      0.58    0.05    0.13
  HS02004852HS02004856 CONDUIT     36.26     0  02:34      0.33    0.04    0.16
  HS02004802HS02004478 CONDUIT    169.22     0  02:36      0.52    0.15    0.47
  HS02004478WS02006287 CONDUIT    661.52     0  02:34      2.09    0.19    0.35
  HS02004817HS02004807 CONDUIT    127.26     0  02:37      0.25    0.08    0.75
  HS02004807HS02004802 CONDUIT    168.61     0  02:35      0.46    0.32    0.53
  YS02001759YS02001757 CONDUIT    811.81     0  02:27      1.03    0.58    1.00
  YS02001762YS02001759 CONDUIT    404.74     0  02:26      0.52    0.47    1.00
  YS02001765YS02001762 CONDUIT    405.13     0  02:26      0.52    0.38    1.00
  YS02001770YS02001767 CONDUIT    404.62     0  02:26      0.52    1.60    1.00
  YS02001774YS02001770 CONDUIT    804.70     0  03:01      1.02    0.51    1.00
  YS02001779YS02001774 CONDUIT    804.76     0  03:01      1.02    0.41    1.00
  YS02001649YS02001757 CONDUIT   1049.51     0  02:24      1.34    0.64    1.00
  YS02001767YS02001765 CONDUIT    405.18     0  02:26      0.52    0.51    1.00
  YS02006561YS02001783 CONDUIT   1146.70     0  02:31      2.28    0.59    1.00
  YS02001783YS02001784 CONDUIT   1146.73     0  02:31      2.28    1.58    1.00
  YS02001784YS02001785 CONDUIT   1147.74     0  02:31      2.28    2.67    1.00
  YS02001788YS02001790 CONDUIT   1159.48     0  02:31      2.70    0.85    1.00
  YS02001790YS02001791 CONDUIT   1261.51     0  02:27      3.40    1.37    1.00
  YS02001791YS02001793 CONDUIT   1210.24     0  02:27      6.71    0.52    1.00
  YS02001910YS02001907 CONDUIT    645.91     0  03:00      0.82    0.36    1.00
  YS02001786YS02001788 CONDUIT   1148.01     0  02:32      2.46    2.21    1.00
  YS02001915YS02001910 CONDUIT    645.90     0  03:00      0.82    0.32    1.00
  YS02001918YS02001915 CONDUIT    316.75     0  02:28      0.47    0.17    1.00
  YS02001923YS02001920 CONDUIT    313.48     0  02:28      0.79    0.14    1.00
  YS02001926YS02001923 CONDUIT    289.11     0  02:28      0.88    0.41    0.98
  YS02001929YS02001926 CONDUIT    227.89     0  03:00      0.95    0.11    0.90
  YS02001920YS02001918 CONDUIT    316.20     0  02:28      0.76    0.31    1.00
  YS02001629YS02163301 CONDUIT    232.64     0  02:22      0.30    0.29    1.00
  YS02001619YS02001622 CONDUIT    414.81     0  03:01      0.62    0.61    1.00
  YS02001622YS02001625 CONDUIT    414.81     0  03:01      0.53    0.22    1.00
  YS02001625YS02001629 CONDUIT    232.52     0  02:22      0.30    0.11    1.00
  YS02163301YS02001633 CONDUIT    233.20     0  02:22      0.30    0.22    1.00
  YS02163601YS02164001 CONDUIT    488.93     0  02:23      0.62    0.43    1.00
  YS02164001YS02001641 CONDUIT    488.81     0  02:23      0.62    0.67    1.00
  YS02001641YS02001644 CONDUIT    488.61     0  02:23      0.62    1.58    1.00
  YS02001647YS02001649 CONDUIT    846.33     0  03:02      1.08    0.45    1.00
  YS02006553YS02006556 CONDUIT    689.17     0  02:26      0.88    0.59    1.00
  YS02006556YS02006558 CONDUIT    688.79     0  02:26      0.88    0.54    1.00
  YSB6556YSB1171       CONDUIT     40.99     0  02:33      0.12    0.04    0.82
  YS02001907YS02006553 CONDUIT    689.45     0  02:26      0.77    0.81    1.00
  YS02006558YS02006561 CONDUIT   1146.75     0  02:32      4.06    2.53    1.00
  YS02001633YS02163601 CONDUIT    488.86     0  02:23      0.62    0.51    1.00
  YS02001644YS02001647 CONDUIT    846.33     0  03:02      1.08    0.50    1.00
  YS02001745YS02001748 CONDUIT    481.92     0  03:00      1.50    0.19    0.99
  YS02001748YS02001751 CONDUIT    481.97     0  03:00      1.07    0.24    1.00
  YS02001751YS02001754 CONDUIT    481.98     0  03:00      0.91    0.23    1.00
  YS02001754YS02001757 CONDUIT    482.24     0  03:00      0.61    0.19    1.00
  YS02001882YS02001884 CONDUIT     24.86     0  02:21      0.13    0.03    1.00
  YS02001884YS02001887 CONDUIT     28.38     0  02:16      0.09    0.04    1.00
  YS02001890YS02001895 CONDUIT    528.25     0  02:26      0.67    0.25    1.00
  YS02001895YS02001898 CONDUIT    528.45     0  02:26      0.67    0.92    1.00
  YS02001898YS02001901 CONDUIT    528.10     0  02:26      0.67    0.34    1.00
  YS02001901YS02001904 CONDUIT    528.42     0  02:26      0.67    0.82    1.00
  YS02001904YS02001907 CONDUIT    528.40     0  02:26      0.67    0.18    1.00
  YS02001887YS02001890 CONDUIT    686.73     0  02:47      0.87    1.18    1.00
  YS02001652YS02001649 CONDUIT    517.94     0  02:43      0.66    0.26    1.00
  YS02001655YS02001652 CONDUIT    517.82     0  02:43      0.97    0.25    1.00
  YS02001658YS02001655 CONDUIT    517.84     0  02:43      1.23    0.22    1.00
  YS02001661YS02001658 CONDUIT    531.51     0  02:38      1.59    0.21    1.00
  YS02001664YS02001661 CONDUIT    765.02     0  02:30      1.65    0.24    0.77
  YSB1154YSB6556       CONDUIT     41.08     0  02:31      0.15    0.07    0.72
  YSB1174YSB1171       CONDUIT     33.21     0  02:29      0.10    0.05    0.83
  YSB1171HS02004479    CONDUIT     73.31     0  02:32      0.54    0.05    0.67
  HS02004881HS02006253 CONDUIT    136.39     0  02:33      2.69    0.03    0.07
  YS02001793JiankangQianchi CONDUIT   1233.51     0  02:27     17.38    0.10    1.00
  YS02001757CaochengTiaoxuchi CONDUIT   2079.46     0  02:24      3.01    0.91    1.00
  WSF200WS02003060     CONDUIT    512.06     0  02:41      2.19    0.11    0.26
  1                    CONDUIT    458.49     0  02:44      2.68    0.16    0.27
  CC-Pump-1            PUMP       200.00     0  01:45              1.00
  CC-Pump-2            PUMP         0.00     0  00:00              0.00
  JK-Pump-1            PUMP         0.00     0  00:00              0.00
  JK-Pump-2            PUMP       683.00     0  00:00              1.00
  XR-Pump-1            PUMP         0.00     0  00:00              0.00
  XR-Pump-2            PUMP        95.00     0  00:00              1.00
  XR-Pump-3            PUMP        95.00     0  00:00              1.00
  XR-Pump-4            PUMP         0.00     0  00:00              0.00
  3                    WEIR       283.04     0  02:33                      0.19
  5                    WEIR       518.27     0  02:36                      0.29
  6                    WEIR       268.94     0  02:45                      0.19
  
  
  ***************************
  Flow Classification Summary
  ***************************
  
  -------------------------------------------------------------------------------------
                      Adjusted    ---------- Fraction of Time in Flow Class ---------- 
                       /Actual         Up    Down  Sub   Sup   Up    Down  Norm  Inlet 
  Conduit               Length    Dry  Dry   Dry   Crit  Crit  Crit  Crit  Ltd   Ctrl  
  -------------------------------------------------------------------------------------
  WS02003066WSF200        1.00   0.06  0.00  0.00  0.00  0.94  0.00  0.00  0.76  0.00
  WS02006287WS02006284    1.00   0.02  0.01  0.00  0.60  0.38  0.00  0.00  0.64  0.00
  WS02006284WS02006280    1.00   0.02  0.00  0.00  0.00  0.00  0.00  0.98  0.00  0.00
  WS02006280WS02006229    1.00   0.02  0.00  0.00  0.00  0.00  0.00  0.98  0.00  0.00
  WS02006229WS02006228    1.00   0.00  0.00  0.00  1.00  0.00  0.00  0.00  0.00  0.00
  WS02006256WS02006235    1.00   0.00  0.00  0.00  0.04  0.96  0.00  0.00  0.02  0.00
  WS02006253WS02006251    1.00   0.01  0.01  0.00  0.80  0.00  0.18  0.00  0.00  0.00
  WS02006252WS02006251    1.00   0.04  0.00  0.00  0.00  0.00  0.96  0.00  0.00  0.00
  WS02006251WS02006249    1.00   0.00  0.00  0.00  1.00  0.00  0.00  0.00  0.79  0.00
  WS02006249WS02006248    1.00   0.00  0.03  0.00  0.17  0.00  0.81  0.00  0.00  0.00
  WS02006248WS02006247    1.00   0.03  0.00  0.00  0.97  0.00  0.00  0.01  0.70  0.00
  WS02006247WS02006245    1.00   0.03  0.00  0.00  0.96  0.00  0.00  0.02  0.00  0.00
  WS02006245WS02006243    1.00   0.03  0.00  0.00  0.94  0.00  0.00  0.03  0.00  0.00
  WS02006243WS02006242    1.00   0.01  0.02  0.00  0.96  0.00  0.00  0.01  0.79  0.00
  WS02006242WS02006240    1.00   0.00  0.03  0.00  0.95  0.00  0.02  0.00  0.19  0.00
  WS02006240WS02006239    1.00   0.00  0.00  0.00  0.96  0.00  0.00  0.04  0.02  0.00
  WS02006239WS02006238    1.00   0.00  0.00  0.00  1.00  0.00  0.00  0.00  0.15  0.00
  WS02006238WS02006235    1.00   0.00  0.00  0.00  1.00  0.00  0.00  0.00  0.00  0.00
  WS02006235WS02006234    1.00   0.03  0.00  0.00  0.96  0.00  0.01  0.00  0.00  0.00
  WS02006234WS02006232    1.00   0.00  0.00  0.00  1.00  0.00  0.00  0.00  0.14  0.00
  WS02006232WS02006231    1.00   0.00  0.00  0.00  1.00  0.00  0.00  0.00  0.01  0.00
  WS02006231WS02006230    1.00   0.00  0.00  0.00  0.28  0.00  0.72  0.00  0.00  0.00
  WS02006230WS02006229    1.00   0.00  0.00  0.00  0.99  0.00  0.00  0.01  0.01  0.00
  WS02006228WS02006109    1.00   0.00  0.00  0.00  1.00  0.00  0.00  0.00  0.00  0.00
  WS02006116WS02004401    1.00   0.02  0.00  0.00  0.98  0.00  0.00  0.00  0.00  0.00
  WS02006115WS02006116    1.00   0.02  0.00  0.00  0.96  0.00  0.00  0.02  0.00  0.00
  WS02006113WS02006111    1.00   0.01  0.00  0.00  0.00  0.99  0.00  0.00  0.05  0.00
  WS02006112WS02006115    1.00   0.01  0.01  0.00  0.98  0.00  0.00  0.00  0.00  0.00
  WS02006111WS02006112    1.00   0.01  0.00  0.00  0.99  0.00  0.00  0.00  0.93  0.00
  WS02006110WS02006113    1.00   0.00  0.01  0.00  0.99  0.00  0.00  0.00  0.00  0.00
  WS02006109WS02006110    1.00   0.00  0.00  0.00  1.00  0.00  0.00  0.00  0.00  0.00
  WS02004411WS02004412    1.00   0.04  0.00  0.00  0.96  0.00  0.00  0.00  0.00  0.00
  WS02004401WS02004402    1.00   0.02  0.00  0.00  0.98  0.00  0.00  0.00  0.04  0.00
  WS02004413WS02003067    1.00   0.04  0.01  0.00  0.00  0.00  0.95  0.00  0.00  0.00
  WS02004412WS02004413    1.00   0.04  0.00  0.00  0.96  0.00  0.00  0.00  0.00  0.00
  WS02004410WS02004411    1.00   0.04  0.00  0.00  0.96  0.00  0.00  0.00  0.00  0.00
  WS02004409WS02004410    1.00   0.04  0.00  0.00  0.96  0.00  0.00  0.00  0.00  0.00
  WS02004407WS02004409    1.00   0.04  0.00  0.00  0.96  0.00  0.00  0.00  0.80  0.00
  WS02004406WS02004407    1.00   0.00  0.04  0.00  0.96  0.00  0.00  0.00  0.00  0.00
  WS02004405WS02004406    1.00   0.00  0.00  0.00  1.00  0.00  0.00  0.00  0.04  0.00
  WS02004404WS02004405    1.00   0.00  0.00  0.00  1.00  0.00  0.00  0.00  0.00  0.00
  WS02004403WS02004404    1.00   0.00  0.02  0.00  0.98  0.00  0.00  0.00  0.04  0.00
  WS02004402WS02004403    1.00   0.02  0.00  0.00  0.98  0.00  0.00  0.00  0.00  0.00
  WS02004139WS02001211    1.00   0.00  0.00  0.00  1.00  0.00  0.00  0.00  0.00  0.00
  WS02004138WS02004139    1.00   0.00  0.00  0.00  0.00  0.01  0.00  0.99  0.00  0.00
  WS02003067WS02003066    1.00   0.05  0.01  0.00  0.94  0.00  0.00  0.00  0.00  0.00
  WS02001213WS02003059    1.00   0.00  0.00  0.00  1.00  0.00  0.00  0.00  0.00  0.00
  WS02001212WS02001213    1.00   0.00  0.57  0.00  0.43  0.00  0.00  0.00  0.46  0.00
  WS02001211WS02001212    1.00   0.00  0.00  0.00  1.00  0.00  0.00  0.00  0.51  0.00
  WS02003072WS02003073    1.00   0.00  0.00  0.00  0.00  0.00  0.00  1.00  0.00  0.00
  WS02003069WS02003072    1.00   0.00  0.00  0.00  1.00  0.00  0.00  0.00  0.91  0.00
  WS02003060WS02003069    1.00   0.00  0.00  0.00  0.98  0.02  0.00  0.00  0.81  0.00
  WS02003059WS02003060    1.00   0.00  0.00  0.00  1.00  0.00  0.00  0.00  0.08  0.00
  HS02004901HS02004770    1.00   0.02  0.00  0.00  0.98  0.00  0.00  0.00  0.00  0.00
  HS02004876HS02004881    1.00   0.00  0.00  0.00  0.84  0.16  0.00  0.00  0.00  0.00
  HS02004870HS02004876    1.00   0.00  0.00  0.00  1.00  0.00  0.00  0.00  0.95  0.00
  HS02004842HS02004848    1.00   0.00  0.02  0.00  0.98  0.00  0.00  0.00  0.56  0.00
  HS02004837HS02004842    1.00   0.00  0.00  0.00  1.00  0.00  0.00  0.00  0.11  0.00
  HS02004830HS02004837    1.00   0.00  0.00  0.00  1.00  0.00  0.00  0.00  0.99  0.00
  HS02004824HS02004830    1.00   0.00  0.00  0.00  1.00  0.00  0.00  0.00  0.04  0.00
  HS02004817HS02004824    1.00   0.00  0.00  0.00  1.00  0.00  0.00  0.00  0.93  0.00
  HS02004770HS02004777    1.00   0.00  0.02  0.00  0.98  0.00  0.00  0.00  0.02  0.00
  HS02004799HS02004480    1.00   0.00  0.01  0.00  0.97  0.00  0.02  0.00  0.00  0.00
  HS02004792HS02004799    1.00   0.00  0.00  0.00  1.00  0.00  0.00  0.00  0.98  0.00
  HS02004788HS02004792    1.00   0.00  0.00  0.00  1.00  0.00  0.00  0.00  0.98  0.00
  HS02004785HS02004788    1.00   0.00  0.00  0.00  1.00  0.00  0.00  0.00  0.00  0.00
  HS02004777HS02004785    1.00   0.00  0.00  0.00  1.00  0.00  0.00  0.00  0.12  0.00
  HS02004480HS02004478    1.00   0.02  0.00  0.00  0.66  0.00  0.00  0.32  0.00  0.00
  HS02004479HS02004480    1.00   0.01  0.00  0.00  0.99  0.00  0.00  0.00  0.11  0.00
  HS02004862HS02004870    1.00   0.00  0.00  0.00  1.00  0.00  0.00  0.00  0.03  0.00
  HS02004848HS02004852    1.00   0.02  0.00  0.00  0.98  0.00  0.00  0.00  0.71  0.00
  HS02004856HS02004862    1.00   0.00  0.03  0.00  0.97  0.00  0.00  0.00  0.83  0.00
  HS02004852HS02004856    1.00   0.02  0.00  0.00  0.98  0.00  0.00  0.00  0.76  0.00
  HS02004802HS02004478    1.00   0.02  0.00  0.00  0.98  0.00  0.00  0.00  0.02  0.00
  HS02004478WS02006287    1.00   0.03  0.00  0.00  0.72  0.26  0.00  0.00  0.64  0.00
  HS02004817HS02004807    1.00   0.00  0.02  0.00  0.98  0.00  0.00  0.00  0.01  0.00
  HS02004807HS02004802    1.00   0.02  0.00  0.00  0.97  0.00  0.00  0.00  0.00  0.00
  YS02001759YS02001757    1.00   0.00  0.00  0.00  1.00  0.00  0.00  0.00  0.15  0.00
  YS02001762YS02001759    1.00   0.00  0.00  0.00  1.00  0.00  0.00  0.00  0.03  0.00
  YS02001765YS02001762    1.00   0.00  0.00  0.00  1.00  0.00  0.00  0.00  0.13  0.00
  YS02001770YS02001767    1.00   0.00  0.00  0.00  1.00  0.00  0.00  0.00  0.00  0.00
  YS02001774YS02001770    1.00   0.00  0.02  0.00  0.98  0.00  0.00  0.00  0.03  0.00
  YS02001779YS02001774    1.00   0.00  0.00  0.00  1.00  0.00  0.00  0.00  0.18  0.00
  YS02001649YS02001757    1.00   0.00  0.00  0.00  1.00  0.00  0.00  0.00  0.15  0.00
  YS02001767YS02001765    1.00   0.00  0.00  0.00  1.00  0.00  0.00  0.00  0.00  0.00
  YS02006561YS02001783    1.00   0.03  0.00  0.00  0.33  0.64  0.00  0.00  0.43  0.00
  YS02001783YS02001784    1.00   0.00  0.03  0.00  0.97  0.00  0.00  0.00  0.00  0.00
  YS02001784YS02001785    1.00   0.00  0.00  0.00  1.00  0.00  0.00  0.00  0.17  0.00
  YS02001788YS02001790    1.00   0.00  0.00  0.00  0.32  0.68  0.00  0.00  0.41  0.00
  YS02001790YS02001791    1.00   0.00  0.00  0.00  0.29  0.71  0.00  0.00  0.52  0.00
  YS02001791YS02001793    1.00   0.00  0.00  0.00  0.30  0.70  0.00  0.00  0.01  0.00
  YS02001910YS02001907    1.00   0.00  0.00  0.00  0.99  0.00  0.00  0.01  0.12  0.00
  YS02001786YS02001788    1.00   0.00  0.00  0.00  0.34  0.66  0.00  0.00  0.00  0.00
  YS02001915YS02001910    1.00   0.00  0.00  0.00  0.99  0.01  0.00  0.00  0.15  0.00
  YS02001918YS02001915    1.00   0.00  0.00  0.00  1.00  0.00  0.00  0.00  0.53  0.00
  YS02001923YS02001920    1.00   0.00  0.00  0.00  1.00  0.00  0.00  0.00  0.76  0.00
  YS02001926YS02001923    1.00   0.00  0.01  0.00  0.24  0.00  0.74  0.00  0.00  0.00
  YS02001929YS02001926    1.00   0.00  0.02  0.00  0.98  0.00  0.00  0.00  0.69  0.00
  YS02001920YS02001918    1.00   0.00  0.00  0.00  1.00  0.00  0.00  0.00  0.00  0.00
  YS02001629YS02163301    1.00   0.03  0.00  0.00  0.97  0.00  0.00  0.00  0.00  0.00
  YS02001619YS02001622    1.00   0.02  0.00  0.00  0.98  0.00  0.00  0.00  0.00  0.00
  YS02001622YS02001625    1.00   0.02  0.00  0.00  0.98  0.00  0.00  0.00  0.04  0.00
  YS02001625YS02001629    1.00   0.02  0.01  0.00  0.96  0.00  0.01  0.00  0.00  0.00
  YS02163301YS02001633    1.00   0.00  0.03  0.00  0.97  0.00  0.00  0.00  0.00  0.00
  YS02163601YS02164001    1.00   0.00  0.01  0.00  0.99  0.00  0.00  0.00  0.00  0.00
  YS02164001YS02001641    1.00   0.00  0.01  0.00  0.99  0.00  0.00  0.00  0.05  0.00
  YS02001641YS02001644    1.00   0.00  0.00  0.00  1.00  0.00  0.00  0.00  0.00  0.00
  YS02001647YS02001649    1.00   0.00  0.03  0.00  0.97  0.00  0.00  0.00  0.01  0.00
  YS02006553YS02006556    1.00   0.00  0.00  0.00  1.00  0.00  0.00  0.00  0.03  0.00
  YS02006556YS02006558    1.00   0.00  0.00  0.00  1.00  0.00  0.00  0.00  0.00  0.00
  YSB6556YSB1171          1.00   0.01  0.01  0.00  0.98  0.00  0.00  0.00  0.00  0.00
  YS02001907YS02006553    1.00   0.00  0.00  0.00  0.99  0.00  0.00  0.00  0.00  0.00
  YS02006558YS02006561    1.00   0.03  0.00  0.00  0.26  0.70  0.00  0.00  0.43  0.00
  YS02001633YS02163601    1.00   0.00  0.00  0.00  1.00  0.00  0.00  0.00  0.15  0.00
  YS02001644YS02001647    1.00   0.00  0.03  0.00  0.97  0.00  0.00  0.00  0.00  0.00
  YS02001745YS02001748    1.00   0.00  0.00  0.00  0.92  0.01  0.00  0.07  0.04  0.00
  YS02001748YS02001751    1.00   0.00  0.00  0.00  0.98  0.02  0.00  0.00  0.14  0.00
  YS02001751YS02001754    1.00   0.00  0.00  0.00  0.96  0.00  0.00  0.04  0.02  0.00
  YS02001754YS02001757    1.00   0.00  0.00  0.00  1.00  0.00  0.00  0.00  0.17  0.00
  YS02001882YS02001884    1.00   0.03  0.00  0.00  0.97  0.00  0.00  0.00  0.00  0.00
  YS02001884YS02001887    1.00   0.01  0.01  0.00  0.98  0.00  0.00  0.00  0.00  0.00
  YS02001890YS02001895    1.00   0.00  0.03  0.00  0.97  0.00  0.00  0.00  0.00  0.00
  YS02001895YS02001898    1.00   0.03  0.00  0.00  0.97  0.00  0.01  0.00  0.00  0.00
  YS02001898YS02001901    1.00   0.03  0.00  0.00  0.97  0.00  0.00  0.00  0.01  0.00
  YS02001901YS02001904    1.00   0.03  0.00  0.00  0.97  0.00  0.00  0.00  0.00  0.00
  YS02001904YS02001907    1.00   0.00  0.03  0.00  0.97  0.00  0.00  0.00  0.00  0.00
  YS02001887YS02001890    1.00   0.00  0.00  0.00  0.99  0.00  0.01  0.00  0.00  0.00
  YS02001652YS02001649    1.00   0.00  0.00  0.00  1.00  0.00  0.00  0.00  0.16  0.00
  YS02001655YS02001652    1.00   0.00  0.00  0.00  0.96  0.00  0.00  0.03  0.02  0.00
  YS02001658YS02001655    1.00   0.00  0.02  0.00  0.96  0.02  0.00  0.00  0.08  0.00
  YS02001661YS02001658    1.00   0.02  0.00  0.00  0.92  0.05  0.00  0.00  0.04  0.00
  YS02001664YS02001661    1.00   0.02  0.00  0.00  0.90  0.08  0.00  0.00  0.17  0.00
  YSB1154YSB6556          1.00   0.02  0.00  0.00  0.98  0.00  0.00  0.00  0.01  0.00
  YSB1174YSB1171          1.00   0.01  0.01  0.00  0.98  0.00  0.00  0.00  0.00  0.00
  YSB1171HS02004479       1.00   0.01  0.00  0.00  0.99  0.00  0.00  0.00  0.10  0.00
  HS02004881HS02006253    1.00   0.01  0.00  0.00  0.00  0.00  0.00  0.99  0.00  0.00
  YS02001793JiankangQianchi    1.00   0.00  0.00  0.00  0.37  0.63  0.00  0.00  0.07  0.00
  YS02001757CaochengTiaoxuchi    1.00   0.00  0.04  0.00  0.91  0.05  0.00  0.00  0.00  0.00
  WSF200WS02003060        1.00   0.00  0.06  0.00  0.00  0.94  0.00  0.00  0.57  0.00
  1                       1.00   0.00  0.00  0.00  0.00  1.00  0.00  0.00  0.28  0.00
  
  
  *************************
  Conduit Surcharge Summary
  *************************
  
  ----------------------------------------------------------------------------
                                                           Hours        Hours 
                         --------- Hours Full --------   Above Full   Capacity
  Conduit                Both Ends  Upstream  Dnstream   Normal Flow   Limited
  ----------------------------------------------------------------------------
  WS02006229WS02006228        0.58      0.62      0.58      1.06         0.58
  WS02006256WS02006235        0.01      0.01      6.53      6.46         0.01
  WS02006235WS02006234        0.01      0.01      0.01      0.56         0.01
  WS02006231WS02006230        0.01      0.01      0.01      0.74         0.01
  WS02006230WS02006229        0.79      0.79      0.80      1.78         0.01
  WS02006228WS02006109        0.60      0.72      0.60      1.48         0.60
  WS02006112WS02006115        0.01      0.01      0.23      0.01         0.01
  WS02006111WS02006112        0.01      0.01      1.22      0.01         0.01
  WS02006110WS02006113        0.01      0.01      0.67      0.01         0.01
  WS02006109WS02006110        0.01      0.01      0.72      0.01         0.01
  WS02004405WS02004406        0.01      0.01      0.01      0.12         0.01
  WS02004404WS02004405        0.01      0.01      0.01      2.21         0.01
  HS02004876HS02004881        0.01      0.01      0.01      0.51         0.01
  HS02004785HS02004788        0.01      0.01      0.01      0.44         0.01
  HS02004480HS02004478        0.01      0.01      0.01      0.97         0.01
  YS02001759YS02001757        6.07      6.07      6.14      0.01         0.01
  YS02001762YS02001759        6.05      6.05      6.07      0.01         0.01
  YS02001765YS02001762        6.03      6.03      6.05      0.01         0.01
  YS02001770YS02001767        6.01      6.02      6.01      0.58         0.62
  YS02001774YS02001770        5.99      5.99      6.04      0.01         0.01
  YS02001779YS02001774        5.82      5.82      6.04      0.01         0.01
  YS02001649YS02001757        6.06      6.06      6.14      0.01         0.01
  YS02001767YS02001765        6.01      6.01      6.03      0.01         0.01
  YS02006561YS02001783        1.41      1.41      1.94      0.01         0.01
  YS02001783YS02001784        1.92      1.94      1.93      1.92         1.76
  YS02001784YS02001785        1.85      1.93      1.85      2.75         1.85
  YS02001788YS02001790        1.71      1.71      1.79      0.01         0.01
  YS02001790YS02001791        1.79      1.79      1.82      1.36         1.16
  YS02001791YS02001793        1.82      1.82      1.94      0.01         0.01
  YS02001910YS02001907        1.78      1.78      2.21      0.01         0.01
  YS02001786YS02001788        1.71      1.85      1.71      2.36         1.71
  YS02001915YS02001910        1.57      1.57      1.78      0.01         0.01
  YS02001918YS02001915        1.33      1.33      1.57      0.01         0.01
  YS02001923YS02001920        1.17      1.17      1.36      0.01         0.01
  YS02001926YS02001923        0.01      0.01      0.01      0.01         0.01
  YS02001929YS02001926        0.01      0.01      0.01      0.01         0.01
  YS02001920YS02001918        1.33      1.33      1.36      0.01         0.01
  YS02001629YS02163301        6.00      6.00      6.00      0.01         0.01
  YS02001619YS02001622        5.74      5.74      5.75      0.01         0.01
  YS02001622YS02001625        5.75      5.75      5.93      0.01         0.01
  YS02001625YS02001629        5.74      5.74      5.93      0.01         0.01
  YS02163301YS02001633        6.00      6.00      6.03      0.01         0.01
  YS02163601YS02164001        6.03      6.03      6.06      0.01         0.01
  YS02164001YS02001641        6.03      6.03      6.04      0.01         0.01
  YS02001641YS02001644        6.04      6.04      6.04      2.10         2.26
  YS02001647YS02001649        5.86      5.86      6.06      0.01         0.01
  YS02006553YS02006556        1.97      1.97      2.26      0.01         0.01
  YS02006556YS02006558        2.10      2.10      2.31      0.01         0.01
  YSB6556YSB1171              0.01      0.01      0.17      0.01         0.01
  YS02001907YS02006553        2.76      2.76      2.98      0.01         0.01
  YS02006558YS02006561        1.60      1.94      1.60      2.62         1.60
  YS02001633YS02163601        6.02      6.02      6.06      0.01         0.01
  YS02001644YS02001647        5.86      5.86      6.04      0.01         0.01
  YS02001745YS02001748        0.01      0.01      5.63      0.01         0.01
  YS02001748YS02001751        5.66      5.66      5.72      0.01         0.01
  YS02001751YS02001754        5.72      5.72      5.82      0.01         0.01
  YS02001754YS02001757        5.84      5.84      6.14      0.01         0.01
  YS02001882YS02001884        1.58      1.58      1.61      0.01         0.01
  YS02001884YS02001887        1.67      1.67      1.70      0.01         0.01
  YS02001890YS02001895        1.55      1.55      1.79      0.01         0.01
  YS02001895YS02001898        1.54      1.54      1.55      0.01         0.01
  YS02001898YS02001901        1.56      1.56      1.66      0.01         0.01
  YS02001901YS02001904        1.64      1.64      1.66      0.01         0.01
  YS02001904YS02001907        1.64      1.64      2.28      0.01         0.01
  YS02001887YS02001890        1.73      1.73      1.76      0.60         0.01
  YS02001652YS02001649        5.87      5.87      6.06      0.01         0.01
  YS02001655YS02001652        5.74      5.74      5.84      0.01         0.01
  YS02001658YS02001655        5.65      5.65      5.74      0.01         0.01
  YS02001661YS02001658        0.38      0.38      5.65      0.01         0.01
  YS02001664YS02001661        0.01      0.01      1.82      0.01         0.01
  YS02001793JiankangQianchi        1.91      1.91      2.45      0.01         0.01
  YS02001757CaochengTiaoxuchi        5.43      5.43      6.14      0.01         0.01
  
  
  ***************
  Pumping Summary
  ***************
  
  ---------------------------------------------------------------------------------------------------------
                                                  Min       Avg       Max     Total     Power    % Time Off
                        Percent   Number of      Flow      Flow      Flow    Volume     Usage    Pump Curve
  Pump                 Utilized   Start-Ups       LPS       LPS       LPS  10^6 ltr     Kw-hr    Low   High
  ---------------------------------------------------------------------------------------------------------
  CC-Pump-1               79.09           1      0.00    199.20    200.00     4.522      4.70    0.0    8.7
  CC-Pump-2                0.00           0      0.00      0.00      0.00     0.000      0.00    0.0    0.0
  JK-Pump-1                0.00           0      0.00      0.00      0.00     0.000      0.00    0.0    0.0
  JK-Pump-2              100.00           1      0.00    406.40    683.00     9.813    137.02    0.0   98.2
  XR-Pump-1                0.00           0      0.00      0.00      0.00     0.000      0.00    0.0    0.0
  XR-Pump-2              100.00           1      0.00     95.00     95.00     2.736     16.43    0.0    0.0
  XR-Pump-3              100.00           1      0.00     95.00     95.00     2.736     16.43    0.0    0.0
  XR-Pump-4                0.00           0      0.00      0.00      0.00     0.000      0.00    0.0    0.0
  
  
  ***************************
  Link Pollutant Load Summary
  ***************************
  
  ------------------------------------------------------------------------------------------
                                 COD            SS            TN            TP         NH4-N
  Link                            kg            kg            kg            kg            kg
  ------------------------------------------------------------------------------------------
  WS02003066WSF200           389.582       750.485        11.412         1.079         6.158
  WS02006287WS02006284       405.926       786.693        12.085         1.152         6.546
  WS02006284WS02006280       406.405       787.458        12.133         1.158         6.575
  WS02006280WS02006229       406.382       787.417        12.131         1.158         6.574
  WS02006229WS02006228       377.673       725.801        11.465         1.099         6.234
  WS02006256WS02006235       321.303       614.670         6.362         0.461         3.120
  WS02006253WS02006251        69.816       140.693         1.455         0.105         0.709
  WS02006252WS02006251       433.128       816.979         8.363         0.572         4.024
  WS02006251WS02006249        76.239       145.232         1.493         0.103         0.720
  WS02006249WS02006248        76.046       144.882         1.487         0.103         0.717
  WS02006248WS02006247        75.942       144.689         1.485         0.103         0.717
  WS02006247WS02006245        75.785       144.398         1.482         0.102         0.715
  WS02006245WS02006243        75.585       144.027         1.478         0.102         0.713
  WS02006243WS02006242        75.392       143.665         1.474         0.102         0.711
  WS02006242WS02006240        75.071       143.072         1.467         0.101         0.708
  WS02006240WS02006239        74.915       142.780         1.464         0.101         0.706
  WS02006239WS02006238        74.650       142.280         1.459         0.101         0.703
  WS02006238WS02006235        74.678       142.345         1.459         0.101         0.704
  WS02006235WS02006234        71.504       141.662         1.499         0.116         0.742
  WS02006234WS02006232        72.252       143.156         1.516         0.118         0.751
  WS02006232WS02006231        73.364       145.369         1.541         0.120         0.763
  WS02006231WS02006230        74.162       146.950         1.559         0.121         0.773
  WS02006230WS02006229        76.402       151.378         1.611         0.125         0.798
  WS02006228WS02006109       376.914       724.567        11.396         1.090         6.192
  WS02006116WS02004401       397.182       762.641        12.100         1.165         6.587
  WS02006115WS02006116       397.910       763.816        12.172         1.174         6.631
  WS02006113WS02006111       383.880       735.718        12.070         1.175         6.613
  WS02006112WS02006115       398.504       764.756        12.226         1.180         6.665
  WS02006111WS02006112       383.623       735.318        12.041         1.171         6.595
  WS02006110WS02006113       384.028       735.947        12.084         1.176         6.622
  WS02006109WS02006110       384.771       737.123        12.155         1.185         6.666
  WS02004411WS02004412       391.229       752.959        11.581         1.101         6.264
  WS02004401WS02004402       396.321       761.260        12.024         1.155         6.539
  WS02004413WS02003067       390.112       751.389        11.452         1.084         6.183
  WS02004412WS02004413       390.538       751.854        11.517         1.093         6.224
  WS02004410WS02004411       391.704       753.731        11.624         1.106         6.291
  WS02004409WS02004410       392.031       754.235        11.658         1.110         6.312
  WS02004407WS02004409       392.358       754.789        11.685         1.113         6.329
  WS02004406WS02004407       392.531       755.113        11.696         1.115         6.335
  WS02004405WS02004406       394.158       757.690        11.848         1.134         6.430
  WS02004404WS02004405       395.188       759.428        11.930         1.144         6.481
  WS02004403WS02004404       394.626       758.531        11.872         1.136         6.445
  WS02004402WS02004403       395.402       759.768        11.942         1.145         6.488
  WS02004139WS02001211        84.951       145.689         6.253         0.757         3.838
  WS02004138WS02004139       761.250      1277.496        59.872         7.278        36.821
  WS02003067WS02003066       389.560       750.419        11.414         1.080         6.160
  WS02001213WS02003059        37.249        69.473         1.649         0.181         0.960
  WS02001212WS02001213        34.431        65.142         1.353         0.144         0.774
  WS02001211WS02001212        33.737        63.664         1.349         0.144         0.774
  WS02003072WS02003073       468.894       865.697        21.266         2.340        12.399
  WS02003069WS02003072       469.916       867.109        21.395         2.357        12.481
  WS02003060WS02003069       468.196       864.368        21.228         2.336        12.377
  WS02003059WS02003060        41.938        78.865         1.763         0.191         1.019
  HS02004901HS02004770        17.568        34.630         0.333         0.025         0.157
  HS02004876HS02004881        59.419       119.646         1.276         0.093         0.624
  HS02004870HS02004876        45.093        90.684         1.013         0.074         0.498
  HS02004842HS02004848         8.487        16.548         0.175         0.012         0.081
  HS02004837HS02004842        13.098        23.870         0.643         0.071         0.375
  HS02004830HS02004837        79.150       140.753         4.887         0.575         2.958
  HS02004824HS02004830        79.941       142.036         4.961         0.584         3.004
  HS02004817HS02004824       113.711       211.077         5.648         0.628         3.338
  HS02004770HS02004777        66.862       133.512         1.368         0.094         0.635
  HS02004799HS02004480       214.699       418.366         5.304         0.458         2.709
  HS02004792HS02004799       195.404       378.627         4.987         0.440         2.564
  HS02004788HS02004792       107.132       208.013         3.171         0.293         1.683
  HS02004785HS02004788        68.335       135.866         1.521         0.113         0.731
  HS02004777HS02004785        67.649       134.758         1.458         0.106         0.692
  HS02004480HS02004478       269.151       527.345         6.239         0.526         3.153
  HS02004479HS02004480        58.074       114.778         1.256         0.108         0.644
  HS02004862HS02004870        34.234        67.944         0.798         0.062         0.395
  HS02004848HS02004852        14.239        28.123         0.288         0.020         0.134
  HS02004856HS02004862        23.492        47.245         0.467         0.031         0.220
  HS02004852HS02004856        14.245        28.132         0.289         0.020         0.134
  HS02004802HS02004478       137.516       260.543         5.905         0.633         3.428
  HS02004478WS02006287       406.105       786.982        12.102         1.154         6.556
  HS02004817HS02004807       112.474       209.092         5.529         0.614         3.263
  HS02004807HS02004802       137.770       260.947         5.938         0.637         3.450
  YS02001759YS02001757       437.113       821.697         8.591         0.600         4.191
  YS02001762YS02001759       213.212       399.235         4.413         0.311         2.175
  YS02001765YS02001762       214.596       402.898         4.455         0.315         2.198
  YS02001770YS02001767       218.059       412.546         4.339         0.293         2.109
  YS02001774YS02001770       381.717       752.677         7.325         0.491         3.543
  YS02001779YS02001774       380.895       751.043         7.393         0.502         3.591
  YS02001649YS02001757       394.802       732.786         7.789         0.539         3.741
  YS02001767YS02001765       216.688       407.924         4.504         0.319         2.224
  YS02006561YS02001783      1185.621      2229.165        24.606         1.825        12.204
  YS02001783YS02001784      1185.475      2228.930        24.601         1.825        12.201
  YS02001784YS02001785      1192.974      2240.969        25.328         1.916        12.656
  YS02001788YS02001790      1193.580      2241.974        25.401         1.925        12.702
  YS02001790YS02001791      1194.680      2243.857        25.502         1.938        12.765
  YS02001791YS02001793      1194.558      2243.635        25.496         1.937        12.762
  YS02001910YS02001907       518.197       975.480        11.845         0.883         6.001
  YS02001786YS02001788      1193.223      2241.431        25.357         1.919        12.674
  YS02001915YS02001910       518.263       975.583        11.798         0.876         5.969
  YS02001918YS02001915       250.918       452.565         6.360         0.556         3.364
  YS02001923YS02001920       227.670       413.982         4.325         0.305         2.099
  YS02001926YS02001923       225.592       410.387         4.231         0.295         2.044
  YS02001929YS02001926       224.680       408.821         4.179         0.289         2.013
  YS02001920YS02001918       248.420       447.390         6.286         0.550         3.323
  YS02001629YS02163301       106.124       190.590         2.202         0.146         1.033
  YS02001619YS02001622       236.810       441.780         4.792         0.317         2.247
  YS02001622YS02001625       235.664       439.966         4.764         0.315         2.235
  YS02001625YS02001629       103.503       184.796         2.167         0.142         1.015
  YS02163301YS02001633       109.589       197.757         2.255         0.151         1.061
  YS02163601YS02164001       492.509       905.410         9.498         0.684         4.561
  YS02164001YS02001641       492.060       904.660         9.478         0.682         4.550
  YS02001641YS02001644       492.389       905.146         9.479         0.682         4.550
  YS02001647YS02001649       525.630       986.405        10.322         0.721         4.927
  YS02006553YS02006556       742.245      1376.219        15.900         1.211         7.985
  YS02006556YS02006558       742.214      1376.145        15.870         1.206         7.964
  YSB6556YSB1171              33.711        66.832         0.669         0.055         0.336
  YS02001907YS02006553       742.358      1376.456        15.913         1.212         7.993
  YS02006558YS02006561      1185.612      2229.143        24.606         1.825        12.203
  YS02001633YS02163601       493.164       906.414         9.476         0.680         4.544
  YS02001644YS02001647       533.014      1000.395        10.449         0.730         4.988
  YS02001745YS02001748       324.703       622.031         6.408         0.400         3.077
  YS02001748YS02001751       323.948       620.730         6.415         0.402         3.085
  YS02001751YS02001754       322.982       619.135         6.398         0.402         3.077
  YS02001754YS02001757       323.818       620.401         6.566         0.425         3.187
  YS02001882YS02001884         4.474         7.860         0.088         0.007         0.044
  YS02001884YS02001887         6.908        12.299         0.135         0.010         0.067
  YS02001890YS02001895       554.403      1057.281        10.233         0.773         4.993
  YS02001895YS02001898       554.286      1057.157        10.227         0.772         4.990
  YS02001898YS02001901       554.186      1056.928        10.226         0.772         4.990
  YS02001901YS02001904       553.826      1056.420        10.226         0.773         4.991
  YS02001904YS02001907       554.254      1057.054        10.286         0.780         5.029
  YS02001887YS02001890       618.914      1186.484        11.413         0.864         5.572
  YS02001652YS02001649       280.410       532.455         5.563         0.403         2.615
  YS02001655YS02001652       280.804       533.115         5.574         0.403         2.620
  YS02001658YS02001655       280.140       532.102         5.481         0.391         2.561
  YS02001661YS02001658       280.511       532.769         5.489         0.392         2.564
  YS02001664YS02001661       299.978       564.011         5.947         0.423         2.774
  YSB1154YSB6556              33.301        66.192         0.621         0.049         0.305
  YSB1174YSB1171              22.852        45.529         0.452         0.036         0.224
  YSB1171HS02004479           58.032       114.711         1.259         0.108         0.646
  HS02004881HS02006253        66.668       134.465         1.412         0.102         0.690
  YS02001793JiankangQianchi      1194.608      2243.721        25.495         1.937        12.761
  YS02001757CaochengTiaoxuchi       739.809      1382.383        14.584         0.997         7.042
  WSF200WS02003060           389.404       750.142        11.404         1.078         6.153
  1                          480.639       883.949        22.472         2.492        13.156
  CC-Pump-1                  433.164       817.045         8.364         0.572         4.025
  CC-Pump-2                    0.000         0.000         0.000         0.000         0.000
  JK-Pump-1                    0.000         0.000         0.000         0.000         0.000
  JK-Pump-2                  785.195      1500.953        15.565         1.129         7.635
  XR-Pump-1                    0.000         0.000         0.000         0.000         0.000
  XR-Pump-2                  381.045       639.441        29.971         3.643        18.432
  XR-Pump-3                  381.045       639.441        29.971         3.643        18.432
  XR-Pump-4                    0.000         0.000         0.000         0.000         0.000
  3                          427.070       812.971         8.376         0.580         4.045
  5                          423.440       816.458         8.419         0.613         4.123
  6                          848.171      1426.351        66.312         8.059        40.776
  

  Analysis begun on:  Thu Jul  8 15:11:52 2021
  Analysis ended on:  Thu Jul  8 15:11:56 2021
  Total elapsed time: 00:00:04