
  EPA STORM WATER MANAGEMENT MODEL - VERSION 5.1 (Build 5.3.0.dev0)
  --------------------------------------------------------------

  WARNING 04: minimum elevation drop used for Conduit WS02004404WS02004405
  WARNING 03: negative offset ignored for Link YS02001904YS02001907
  
  *********************************************************
  NOTE: The summary statistics displayed in this report are
  based on results found at every computational time step,  
  not just on results from each reporting time step.
  *********************************************************
  
  ****************
  Analysis Options
  ****************
  Flow Units ............... LPS
  Process Models:
    Rainfall/Runoff ........ YES
    RDII ................... NO
    Snowmelt ............... NO
    Groundwater ............ NO
    Flow Routing ........... YES
    Ponding Allowed ........ NO
    Water Quality .......... YES
  Infiltration Method ...... HORTON
  Flow Routing Method ...... DYNWAVE
  Surcharge Method ......... EXTRAN
  Starting Date ............ 08/28/2015 08:00:00
  Ending Date .............. 08/28/2015 16:00:00
  Antecedent Dry Days ...... 8.0
  Report Time Step ......... 00:01:00
  Wet Time Step ............ 00:01:00
  Dry Time Step ............ 00:01:00
  Routing Time Step ........ 5.00 sec
  Variable Time Step ....... YES
  Maximum Trials ........... 8
  Number of Threads ........ 4
  Head Tolerance ........... 0.001500 m
  
  
  **************************        Volume         Depth
  Runoff Quantity Continuity     hectare-m            mm
  **************************     ---------       -------
  Total Precipitation ......         6.825        14.943
  Evaporation Loss .........         0.000         0.000
  Infiltration Loss ........         1.122         2.457
  Surface Runoff ...........         4.791        10.489
  Final Storage ............         0.913         2.000
  Continuity Error (%) .....        -0.016
  
  
  **************************           COD            SS            TN            TP         NH4-N
  Runoff Quality Continuity             kg            kg            kg            kg            kg
  **************************    ----------    ----------    ----------    ----------    ----------
  Initial Buildup ..........     41378.656     70582.865      1804.177       168.684      1032.807
  Surface Buildup ..........        27.893        56.270         2.446         0.221         1.407
  Wet Deposition ...........         0.000         0.000         0.000         0.000         0.000
  Sweeping Removal .........         0.000         0.000         0.000         0.000         0.000
  Infiltration Loss ........       113.554       217.618         2.165         0.153         1.034
  BMP Removal ..............         0.000         0.000         0.000         0.000         0.000
  Surface Runoff ...........      4590.394      8690.260        88.537         6.081        42.150
  Remaining Buildup ........     36700.912     61728.012      1715.886       162.669       991.015
  Continuity Error (%) .....         0.004         0.005         0.002         0.001         0.002
  
  
  **************************        Volume        Volume
  Flow Routing Continuity        hectare-m      10^6 ltr
  **************************     ---------     ---------
  Dry Weather Inflow .......         0.630         6.296
  Wet Weather Inflow .......         4.790        47.899
  Groundwater Inflow .......         0.000         0.000
  RDII Inflow ..............         0.000         0.000
  External Inflow ..........         0.105         1.045
  External Outflow .........         1.776        17.761
  Flooding Loss ............         3.226        32.259
  Evaporation Loss .........         0.000         0.000
  Exfiltration Loss ........         0.000         0.000
  Initial Stored Volume ....         0.076         0.761
  Final Stored Volume ......         0.601         6.012
  Continuity Error (%) .....        -0.056
  
  
  **************************           COD            SS            TN            TP         NH4-N
  Quality Routing Continuity            kg            kg            kg            kg            kg
  **************************    ----------    ----------    ----------    ----------    ----------
  Dry Weather Inflow .......      1573.993      2518.389       151.103        18.888        94.440
  Wet Weather Inflow .......      4590.053      8689.775        88.529         6.080        42.146
  Groundwater Inflow .......         0.000         0.000         0.000         0.000         0.000
  RDII Inflow ..............         0.000         0.000         0.000         0.000         0.000
  External Inflow ..........       187.321       299.713        17.983         2.248        11.239
  External Outflow .........      2081.777      3656.757       126.900        14.831        76.470
  Flooding Loss ............      3418.633      6349.917        98.587         9.112        53.157
  Exfiltration Loss ........         0.000         0.000         0.000         0.000         0.000
  Mass Reacted .............         0.000         0.000         0.000         0.000         0.000
  Initial Stored Mass ......         0.000         0.000         0.000         0.000         0.000
  Final Stored Mass ........       638.300      1147.271        25.287         2.643        14.460
  Continuity Error (%) .....         3.348         3.076         2.656         2.315         2.529
  
  
  *************************
  Highest Continuity Errors
  *************************
  Node HS02004842 (12.17%)
  Node YS02001884 (8.56%)
  Node WS02003059 (6.39%)
  Node HS02004817 (2.31%)
  Node YSB1171 (2.21%)
  
  
  ***************************
  Time-Step Critical Elements
  ***************************
  Link YS02001793JiankangQianchi (45.25%)
  Link WS02006280WS02006229 (25.93%)
  Link YS02001661YS02001658 (6.32%)
  Link YS02006556YS02006558 (6.03%)
  Link YS02001791YS02001793 (2.46%)
  
  
  ********************************
  Highest Flow Instability Indexes
  ********************************
  Link WS02006113WS02006111 (34)
  Link YS02006558YS02006561 (22)
  Link YS02006556YS02006558 (17)
  Link WS02006111WS02006112 (16)
  Link YS02001904YS02001907 (14)
  
  
  *************************
  Routing Time Step Summary
  *************************
  Minimum Time Step           :     0.50 sec
  Average Time Step           :     2.17 sec
  Maximum Time Step           :     5.00 sec
  Percent in Steady State     :    -0.00
  Average Iterations per Step :     2.86
  Percent Not Converging      :     8.02
  
  
  ***************************
  Subcatchment Runoff Summary
  ***************************
  
  ------------------------------------------------------------------------------------------------------------------------------
                            Total      Total      Total      Total     Imperv       Perv      Total       Total     Peak  Runoff
                           Precip      Runon       Evap      Infil     Runoff     Runoff     Runoff      Runoff   Runoff   Coeff
  Subcatchment                 mm         mm         mm         mm         mm         mm         mm    10^6 ltr      LPS
  ------------------------------------------------------------------------------------------------------------------------------
  sub0                      14.94       0.00       0.00       0.67      13.85       0.38      14.23        0.01     2.95   0.952
  sub1                      14.94       0.00       0.00       1.13      13.21       0.51      13.72        0.09    20.77   0.918
  sub2                      14.94       0.00       0.00       4.59       9.33       0.94      10.27        0.10    20.13   0.687
  sub3                      14.94       0.00       0.00       4.76       9.30       0.77      10.07        0.23    45.01   0.674
  sub4                      14.94       0.00       0.00       1.24      13.06       0.41      13.46        0.28    53.61   0.901
  sub5                      14.94       0.00       0.00       0.70      13.80       0.35      14.15        0.16    36.52   0.947
  sub7                      14.94       0.00       0.00       0.89      13.54       0.46      14.00        0.05    11.42   0.937
  sub8                      14.94       0.00       0.00       0.90      13.53       0.45      13.98        0.09    21.17   0.935
  sub9                      14.94       0.00       0.00       0.90      13.53       0.45      13.97        0.07    15.85   0.935
  sub10                     14.94       0.00       0.00       0.80      13.66       0.40      14.06        0.16    35.75   0.941
  sub11                     14.94       0.00       0.00       0.79      13.68       0.41      14.09        0.16    39.05   0.943
  sub12                     14.94       0.00       0.00       1.28      12.95       0.66      13.61        0.12    29.95   0.911
  sub14                     14.94       0.00       0.00       0.90      13.52       0.45      13.97        0.13    31.23   0.935
  sub15                     14.94       0.00       0.00       3.42      10.40       1.06      11.46        0.20    44.55   0.767
  sub16                     14.94       0.00       0.00       3.60       9.97       1.33      11.31        0.12    28.40   0.757
  sub17                     14.94       0.00       0.00       3.50      10.12       1.28      11.40        0.10    23.29   0.763
  sub22                     14.94       0.00       0.00       5.08       8.48       1.34       9.82        0.62   139.97   0.657
  sub23                     14.94       0.00       0.00       4.23       9.37       1.30      10.67        0.51   117.35   0.714
  sub60                     14.94       0.00       0.00       1.62      11.28       0.17      11.45        3.47   388.02   0.766
  sub61                     14.94       0.00       0.00       2.30      11.28       0.24      11.52        3.55   453.50   0.771
  sub62                     14.94       0.00       0.00       1.01      12.32       0.18      12.50        3.84   470.76   0.836
  sub63                     14.94       0.00       0.00       4.06       9.82       0.27      10.09        3.06   411.73   0.675
  sub64                     14.94       0.00       0.00       2.07      10.84       0.17      11.01        3.35   371.05   0.737
  sub65                     14.94       0.00       0.00       1.78      11.03       0.16      11.20        3.44   378.16   0.749
  sub66                     14.94       0.00       0.00       4.15       9.25       0.18       9.43        2.89   333.79   0.631
  sub67                     14.94       0.00       0.00       0.97      12.84       0.22      13.06        4.03   561.93   0.874
  sub68                     14.94       0.00       0.00       1.84      11.82       0.25      12.07        3.71   490.90   0.808
  sub69                     14.94       0.00       0.00       1.91      12.12       0.34      12.45        2.91   446.51   0.833
  sub70                     14.94      12.71       0.00       7.96      16.76       1.44      18.19        4.16   492.54   0.658
  sub71                     14.94       0.00       0.00       1.03      12.07       0.17      12.23        2.89   337.39   0.819
  sub72                     14.94       0.00       0.00       0.95      10.05       0.09      10.14        2.07   188.28   0.679
  1                         14.94      17.71       0.00       1.40      19.41       5.94      25.35        5.96   536.12   0.776
  2                         14.94       0.00       0.00       3.09       3.60       2.57       6.17        2.47   275.68   0.413
  
  
  ****************************
  Subcatchment Washoff Summary
  ****************************
  
  ------------------------------------------------------------------------------------------
                                 COD            SS            TN            TP         NH4-N
  Subcatchment                    kg            kg            kg            kg            kg
  ------------------------------------------------------------------------------------------
  sub0                         3.040         5.916         0.053         0.004         0.026
  sub1                        13.146        26.365         0.247         0.017         0.119
  sub2                         8.395        16.447         0.176         0.012         0.081
  sub3                        20.646        40.146         0.424         0.029         0.196
  sub4                        30.501        61.984         0.602         0.037         0.289
  sub5                        30.052        59.367         0.540         0.041         0.262
  sub7                         6.636        13.478         0.126         0.008         0.061
  sub8                         9.925        20.639         0.198         0.012         0.095
  sub9                         8.521        17.469         0.165         0.011         0.079
  sub10                       24.673        49.373         0.455         0.033         0.220
  sub11                       23.887        48.310         0.449         0.031         0.217
  sub12                       20.389        40.430         0.372         0.028         0.180
  sub14                       18.254        37.070         0.347         0.023         0.167
  sub15                       24.292        47.502         0.467         0.034         0.220
  sub16                       15.652        30.524         0.298         0.022         0.140
  sub17                       14.380        27.794         0.267         0.021         0.126
  sub22                       76.738       147.365         1.455         0.110         0.682
  sub23                       44.233        87.867         0.933         0.062         0.430
  sub60                      294.453       558.636         5.833         0.362         2.799
  sub61                      365.115       689.683         6.795         0.469         3.275
  sub62                      376.512       722.944         7.328         0.469         3.523
  sub63                      270.931       504.389         5.392         0.382         2.510
  sub64                      372.397       681.763         6.849         0.502         3.276
  sub65                      380.813       699.947         7.047         0.507         3.376
  sub66                      214.094       395.345         4.358         0.287         2.041
  sub67                      558.701      1062.068        10.059         0.745         4.869
  sub68                      399.700       762.247         7.630         0.520         3.652
  sub69                      358.315       690.112         6.718         0.476         3.219
  sub70                      621.492      1200.679        12.412         0.871         5.841
  sub71                      248.166       480.867         5.069         0.297         2.428
  sub72                      203.274       366.415         3.790         0.261         1.825
  1                          459.591       892.781         9.329         0.655         4.348
  2                           53.287        95.129         1.490         0.090         0.637
  ------------------------------------------------------------------------------------------
  System                    5570.200     10581.052       107.667         7.427        51.210
  
  
  ******************
  Node Depth Summary
  ******************
  
  ---------------------------------------------------------------------------------
                                 Average  Maximum  Maximum  Time of Max    Reported
                                   Depth    Depth      HGL   Occurrence   Max Depth
  Node                 Type       Meters   Meters   Meters  days hr:min      Meters
  ---------------------------------------------------------------------------------
  WS02001211           JUNCTION     0.28     0.33     5.17     0  02:21        0.33
  WS02001212           JUNCTION     0.06     0.15     5.21     0  02:20        0.15
  WS02001213           JUNCTION     0.34     0.50     5.26     0  02:20        0.50
  WS02003069           JUNCTION     0.19     0.37     4.95     0  02:20        0.37
  WS02003072           JUNCTION     0.25     0.44     4.81     0  02:21        0.44
  WS02003073           JUNCTION     0.14     0.26     4.32     0  02:22        0.26
  WS02003060           JUNCTION     0.17     0.33     5.26     0  02:19        0.33
  WS02003066           JUNCTION     0.15     0.28     5.83     0  02:18        0.28
  WS02003059           JUNCTION     0.41     0.58     5.26     0  02:19        0.58
  WS02003067           JUNCTION     0.41     0.67     5.99     0  02:18        0.67
  WS02004401           JUNCTION     0.48     0.81     6.81     0  02:15        0.81
  WS02004402           JUNCTION     0.51     0.84     6.80     0  02:15        0.84
  WS02004403           JUNCTION     0.54     0.86     6.79     0  02:15        0.86
  WS02004404           JUNCTION     0.61     0.94     6.79     0  02:13        0.94
  WS02004406           JUNCTION     0.62     0.92     6.75     0  02:15        0.91
  WS02004409           JUNCTION     0.28     0.61     6.38     0  02:17        0.61
  WS02004410           JUNCTION     0.31     0.63     6.35     0  02:17        0.63
  WS02004411           JUNCTION     0.33     0.64     6.32     0  02:17        0.64
  WS02004412           JUNCTION     0.36     0.65     6.29     0  02:18        0.65
  WS02004413           JUNCTION     0.51     0.82     6.29     0  02:18        0.82
  WS02004405           JUNCTION     0.61     0.92     6.77     0  02:14        0.92
  WS02006109           JUNCTION     0.53     0.87     7.49     0  02:11        0.87
  WS02006110           JUNCTION     0.55     0.85     7.43     0  02:11        0.85
  WS02006111           JUNCTION     0.13     0.26     6.97     0  02:13        0.26
  WS02006112           JUNCTION     0.62     0.99     6.87     0  02:14        0.99
  WS02006113           JUNCTION     0.20     0.41     7.30     0  02:12        0.41
  WS02006115           JUNCTION     0.36     0.70     6.84     0  02:14        0.70
  WS02006116           JUNCTION     0.45     0.79     6.83     0  02:15        0.79
  WS02006230           JUNCTION     0.42     0.81     7.56     0  02:11        0.81
  WS02006231           JUNCTION     0.18     0.41     7.54     0  02:11        0.41
  WS02006232           JUNCTION     0.27     0.49     7.53     0  02:11        0.49
  WS02006234           JUNCTION     0.15     0.33     7.49     0  02:12        0.33
  WS02006235           JUNCTION     0.16     0.26     7.42     0  02:13        0.26
  WS02006238           JUNCTION     0.18     0.28     7.42     0  02:13        0.28
  WS02006240           JUNCTION     0.05     0.14     7.43     0  02:13        0.14
  WS02006242           JUNCTION     0.08     0.18     7.45     0  02:14        0.18
  WS02006243           JUNCTION     0.03     0.09     7.51     0  02:14        0.09
  WS02006245           JUNCTION     0.03     0.10     7.59     0  02:13        0.10
  WS02006247           JUNCTION     0.04     0.12     7.62     0  02:12        0.12
  WS02006248           JUNCTION     0.03     0.09     7.67     0  02:11        0.09
  WS02006249           JUNCTION     0.05     0.13     7.73     0  02:11        0.13
  WS02006239           JUNCTION     0.12     0.22     7.43     0  02:13        0.22
  WS02006251           JUNCTION     0.03     0.10     7.77     0  02:10        0.10
  WS02006252           JUNCTION     0.00     0.00     8.24     0  00:00        0.00
  WS02006253           JUNCTION     0.13     0.33     7.97     0  02:09        0.33
  WS02006256           JUNCTION     1.82     2.35     9.28     0  00:00        2.35
  WS02004138           JUNCTION     0.17     0.17     7.42     0  00:00        0.17
  WS02004139           JUNCTION     0.20     0.22     5.13     0  02:22        0.22
  WS02004407           JUNCTION     0.13     0.27     6.59     0  02:16        0.27
  WS02006228           JUNCTION     0.50     0.89     7.54     0  02:11        0.89
  WS02006229           JUNCTION     0.47     0.87     7.56     0  02:11        0.87
  WS02006280           JUNCTION     0.09     0.24     8.51     0  02:10        0.24
  WS02006284           JUNCTION     0.40     0.61     9.01     0  02:10        0.61
  WS02006287           JUNCTION     0.13     0.35     9.31     0  02:10        0.35
  WSF200               JUNCTION     0.12     0.26     5.50     0  02:18        0.26
  HS02004901           JUNCTION     0.15     0.34    10.16     0  02:08        0.34
  HS02004881           JUNCTION     0.01     0.05     9.08     0  02:09        0.05
  HS02004876           JUNCTION     0.06     0.15     9.18     0  02:09        0.15
  HS02004870           JUNCTION     0.02     0.08     9.37     0  02:09        0.08
  HS02004862           JUNCTION     0.03     0.10     9.48     0  02:10        0.10
  HS02004856           JUNCTION     0.09     0.14     9.57     0  02:10        0.14
  HS02004852           JUNCTION     0.02     0.06     9.58     0  02:10        0.06
  HS02004848           JUNCTION     0.02     0.06     9.66     0  02:10        0.06
  HS02004842           JUNCTION     0.34     0.39     9.66     0  02:10        0.39
  HS02004837           JUNCTION     0.04     0.08     9.66     0  02:10        0.08
  HS02004830           JUNCTION     0.05     0.10     9.56     0  02:10        0.10
  HS02004824           JUNCTION     0.03     0.10     9.50     0  02:10        0.10
  HS02004817           JUNCTION     0.46     0.66     9.51     0  02:10        0.66
  HS02004807           JUNCTION     0.15     0.33     9.50     0  02:10        0.33
  HS02004802           JUNCTION     0.19     0.36     9.49     0  02:11        0.36
  HS02004799           JUNCTION     0.16     0.42     9.63     0  02:09        0.42
  HS02004792           JUNCTION     0.05     0.19     9.71     0  02:08        0.19
  HS02004788           JUNCTION     0.04     0.14    10.04     0  02:09        0.14
  HS02004785           JUNCTION     0.07     0.22    10.12     0  02:09        0.22
  HS02004777           JUNCTION     0.17     0.36    10.15     0  02:08        0.36
  HS02004770           JUNCTION     0.14     0.33    10.16     0  02:08        0.33
  HS02004480           JUNCTION     0.12     0.34     9.58     0  02:09        0.34
  HS02004479           JUNCTION     0.15     0.38     9.58     0  02:09        0.38
  HS02004478           JUNCTION     0.08     0.24     9.47     0  02:10        0.24
  YS02001745           JUNCTION     0.72     0.97     8.49     0  02:54        0.97
  YS02001748           JUNCTION     1.09     1.40     8.48     0  02:54        1.40
  YS02001751           JUNCTION     1.27     1.59     8.47     0  02:54        1.59
  YS02001754           JUNCTION     1.51     1.86     8.46     0  02:54        1.86
  YS02001762           JUNCTION     1.70     2.07     8.47     0  02:44        2.05
  YS02001765           JUNCTION     1.66     2.02     8.47     0  02:44        2.00
  YS02001767           JUNCTION     1.62     1.97     8.46     0  02:44        1.95
  YS02001770           JUNCTION     1.62     1.94     8.44     0  02:44        1.94
  YS02001774           JUNCTION     1.68     1.99     8.41     0  02:42        1.98
  YS02001779           JUNCTION     1.43     1.68     8.37     0  02:10        1.68
  YS02001882           JUNCTION     0.69     1.63     8.35     0  02:11        1.62
  YS02001884           JUNCTION     0.78     1.73     8.35     0  02:28        1.72
  YS02001759           JUNCTION     1.74     2.10     8.46     0  02:44        2.09
  YS02001887           JUNCTION     0.86     1.81     8.34     0  02:34        1.80
  YS02001890           JUNCTION     0.89     1.81     8.32     0  02:11        1.81
  YS02001898           JUNCTION     0.65     1.57     8.30     0  02:11        1.56
  YS02001901           JUNCTION     0.77     1.68     8.29     0  02:26        1.67
  YS02001904           JUNCTION     0.74     1.64     8.27     0  02:18        1.63
  YS02001907           JUNCTION     1.07     1.96     8.25     0  02:11        1.96
  YS02001910           JUNCTION     0.86     1.79     8.29     0  02:12        1.77
  YS02001915           JUNCTION     0.67     1.60     8.32     0  02:12        1.59
  YS02001918           JUNCTION     0.42     1.29     8.35     0  02:12        1.26
  YS02001619           JUNCTION     1.23     1.48     8.41     0  02:28        1.47
  YS02001629           JUNCTION     1.56     1.85     8.39     0  02:28        1.84
  YS02001641           JUNCTION     1.66     1.93     8.37     0  02:10        1.93
  YS02001644           JUNCTION     1.66     1.92     8.35     0  02:08        1.92
  YS02001652           JUNCTION     1.52     2.01     8.61     0  02:18        1.92
  YS02001655           JUNCTION     1.29     1.89     8.74     0  02:18        1.74
  YS02001920           JUNCTION     0.51     1.36     8.37     0  02:12        1.33
  YS02001923           JUNCTION     0.34     1.12     8.38     0  02:12        1.09
  YS02001926           JUNCTION     0.36     0.96     8.40     0  02:12        0.92
  YS02001929           JUNCTION     0.22     0.70     8.40     0  02:12        0.70
  YS02001658           JUNCTION     1.04     1.72     8.87     0  02:26        1.50
  YS02001661           JUNCTION     0.82     1.72     9.13     0  02:13        1.21
  YS02001664           JUNCTION     0.38     0.57     8.50     0  02:11        0.55
  YS02001622           JUNCTION     1.24     1.50     8.40     0  02:31        1.50
  YS02001633           JUNCTION     1.65     1.95     8.40     0  02:08        1.94
  YS02001649           JUNCTION     1.71     2.05     8.44     0  02:11        2.05
  YS02001757           JUNCTION     1.83     2.20     8.46     0  02:44        2.19
  YS02001895           JUNCTION     0.65     1.57     8.31     0  02:20        1.56
  YS02001625           JUNCTION     1.52     1.78     8.38     0  02:06        1.78
  YS02163301           JUNCTION     1.59     1.88     8.40     0  02:09        1.88
  YS02163601           JUNCTION     1.70     1.99     8.38     0  02:08        1.98
  YS02164001           JUNCTION     1.64     1.92     8.38     0  02:08        1.91
  YS02001647           JUNCTION     1.50     1.80     8.41     0  02:11        1.79
  YSB1154              JUNCTION     0.29     0.53     9.58     0  02:09        0.53
  YSB6556              JUNCTION     0.18     0.41     9.58     0  02:09        0.41
  YSB1174              JUNCTION     0.24     0.47     9.58     0  02:09        0.47
  YSB1171              JUNCTION     0.44     0.68     9.58     0  02:09        0.68
  YS02006553           JUNCTION     1.07     2.02     8.31     0  02:18        1.97
  YS02006561           JUNCTION     0.41     1.24     7.90     0  02:18        1.08
  YS02006556           JUNCTION     1.04     2.07     8.38     0  02:18        1.93
  YS02006558           JUNCTION     1.08     2.14     8.40     0  02:18        1.97
  YS02001783           JUNCTION     0.63     1.68     7.82     0  02:18        1.47
  YS02001784           JUNCTION     0.64     1.65     7.72     0  02:18        1.41
  YS02001786           JUNCTION     0.56     1.54     7.57     0  02:18        1.26
  YS02001788           JUNCTION     0.47     1.43     7.41     0  02:18        1.12
  YS02001790           JUNCTION     0.55     1.51     7.15     0  02:18        1.29
  YS02001791           JUNCTION     0.49     1.28     6.75     0  02:23        1.28
  YS02001793           JUNCTION     0.61     1.80     6.64     0  02:19        1.80
  WSC                  OUTFALL      0.14     0.26     0.93     0  02:22        0.26
  3                    OUTFALL      0.00     0.00     7.16     0  00:00        0.00
  4                    OUTFALL      0.00     0.00     7.67     0  00:00        0.00
  5                    OUTFALL      0.00     0.00     4.91     0  00:00        0.00
  JK-storage           STORAGE      1.98     5.80     6.60     0  02:18        5.80
  CC-storage           STORAGE      1.09     1.46     8.46     0  02:51        1.46
  XR-storage           STORAGE      6.64     7.72     5.72     0  02:20        7.72
  
  
  *******************
  Node Inflow Summary
  *******************
  
  -------------------------------------------------------------------------------------------------
                                  Maximum  Maximum                  Lateral       Total        Flow
                                  Lateral    Total  Time of Max      Inflow      Inflow     Balance
                                   Inflow   Inflow   Occurrence      Volume      Volume       Error
  Node                 Type           LPS      LPS  days hr:min    10^6 ltr    10^6 ltr     Percent
  -------------------------------------------------------------------------------------------------
  WS02001211           JUNCTION      7.35    66.97     0  02:20       0.212       0.432       1.857
  WS02001212           JUNCTION      0.00    59.68     0  02:20           0       0.229       0.448
  WS02001213           JUNCTION      0.00    59.82     0  02:19           0       0.236       3.629
  WS02003069           JUNCTION      0.32   419.21     0  02:20     0.00922        3.27       0.148
  WS02003072           JUNCTION      0.00   419.19     0  02:20           0        3.27       0.246
  WS02003073           JUNCTION      1.82   420.99     0  02:21      0.0524        3.31       0.206
  WS02003060           JUNCTION     16.53   479.02     0  02:18       0.476        3.51       0.129
  WS02003066           JUNCTION      0.00   462.48     0  02:18           0        3.02       0.052
  WS02003059           JUNCTION      0.00    85.26     0  01:48           0       0.259       6.825
  WS02003067           JUNCTION      0.00   462.46     0  02:18           0        3.02       0.147
  WS02004401           JUNCTION      0.00   465.01     0  02:13           0        3.13       0.350
  WS02004402           JUNCTION      0.00   465.49     0  02:14           0        3.12       0.354
  WS02004403           JUNCTION      0.00   465.52     0  02:14           0        3.11       0.342
  WS02004404           JUNCTION      0.16   475.00     0  02:12     0.00467        3.11       0.298
  WS02004406           JUNCTION      0.00   468.22     0  02:13           0        3.09       0.694
  WS02004409           JUNCTION      0.00   464.25     0  02:16           0        3.06       0.111
  WS02004410           JUNCTION      0.00   463.64     0  02:16           0        3.06       0.170
  WS02004411           JUNCTION      0.00   463.11     0  02:17           0        3.05       0.208
  WS02004412           JUNCTION      0.00   462.84     0  02:17           0        3.05       0.272
  WS02004413           JUNCTION      0.00   462.58     0  02:18           0        3.04       0.481
  WS02004405           JUNCTION      0.04   516.95     0  02:14      0.0011         3.1       0.390
  WS02006109           JUNCTION      1.23   445.64     0  02:11      0.0354        3.09       0.355
  WS02006110           JUNCTION      0.00   445.64     0  02:11           0        3.08       0.312
  WS02006111           JUNCTION      0.00   459.03     0  02:10           0        3.07       0.029
  WS02006112           JUNCTION     23.29   469.44     0  02:13      0.0978        3.16       0.481
  WS02006113           JUNCTION      0.00   445.77     0  02:11           0        3.07       0.067
  WS02006115           JUNCTION      0.00   466.98     0  02:13           0        3.15       0.291
  WS02006116           JUNCTION      0.00   465.84     0  02:13           0        3.14       0.206
  WS02006230           JUNCTION     10.28   137.79     0  02:10       0.296         0.9       0.554
  WS02006231           JUNCTION      0.00   137.49     0  02:10           0       0.652      -0.004
  WS02006232           JUNCTION      0.00   137.17     0  02:11           0       0.652       0.580
  WS02006234           JUNCTION      0.00   137.04     0  02:11           0        0.65      -0.051
  WS02006235           JUNCTION      0.00   440.92     0  02:13           0        5.71       0.035
  WS02006238           JUNCTION      0.00    49.29     0  00:00           0      0.0663       1.298
  WS02006240           JUNCTION      0.00    15.38     0  02:16           0      0.0562      -0.051
  WS02006242           JUNCTION      0.00    15.26     0  02:14           0      0.0558       0.315
  WS02006243           JUNCTION      0.00    15.29     0  02:13           0      0.0555      -0.221
  WS02006245           JUNCTION      0.00    15.29     0  02:12           0      0.0559       0.625
  WS02006247           JUNCTION      0.00    15.32     0  02:11           0       0.056       0.167
  WS02006248           JUNCTION      0.00    15.32     0  02:11           0       0.056       0.031
  WS02006249           JUNCTION      0.00    15.39     0  02:10           0      0.0561       0.131
  WS02006239           JUNCTION      0.00    17.97     0  00:01           0        0.06       0.819
  WS02006251           JUNCTION      0.08   121.44     0  02:09     0.00222        0.54      -0.005
  WS02006252           JUNCTION      0.00     0.00     0  00:00           0           0       0.000 ltr
  WS02006253           JUNCTION      2.95   121.37     0  02:09      0.0115       0.538       0.036
  WS02006256           JUNCTION      0.00   683.00     0  00:00           0        9.68      -0.018
  WS02004138           JUNCTION      0.00   285.00     0  00:00           0        8.21       0.063
  WS02004139           JUNCTION      0.32   352.23     0  02:22     0.00924        8.62       0.078
  WS02004407           JUNCTION      0.00   464.34     0  02:16           0        3.06       0.052
  WS02006228           JUNCTION      0.00   444.41     0  02:11           0        3.06       0.222
  WS02006229           JUNCTION      0.00   571.85     0  02:10           0        3.33       0.231
  WS02006280           JUNCTION      0.00   571.84     0  02:10           0        2.75       0.003
  WS02006284           JUNCTION      0.10   571.77     0  02:10     0.00275        2.75       0.022
  WS02006287           JUNCTION      0.00   571.59     0  02:10           0        2.75       0.027
  WSF200               JUNCTION      0.00   462.48     0  02:18           0        3.02       0.023
  HS02004901           JUNCTION     28.40    28.40     0  02:06       0.118       0.119       1.506
  HS02004881           JUNCTION     11.42   118.67     0  02:09      0.0472       0.527       0.012
  HS02004876           JUNCTION     20.77   107.66     0  02:09      0.0912        0.48       0.111
  HS02004870           JUNCTION     21.17    87.10     0  02:09      0.0893       0.389       0.029
  HS02004862           JUNCTION     20.33    66.55     0  02:10       0.101         0.3       0.057
  HS02004856           JUNCTION     15.85    46.26     0  02:09      0.0672         0.2       0.726
  HS02004852           JUNCTION      0.00    30.83     0  02:10           0       0.133       0.041
  HS02004848           JUNCTION     45.01    45.01     0  02:12       0.227       0.227       0.022
  HS02004842           JUNCTION      0.00    15.12     0  02:21           0       0.107      13.855
  HS02004837           JUNCTION     42.10    55.58     0  02:09       0.338       0.432       0.190
  HS02004830           JUNCTION      0.15    55.70     0  02:10     0.00432       0.422       0.293
  HS02004824           JUNCTION     53.66   109.16     0  02:12       0.282       0.703       0.078
  HS02004817           JUNCTION      0.60   110.33     0  02:13      0.0173        0.72       2.369
  HS02004807           JUNCTION     39.05   147.20     0  02:12       0.164       0.868       0.505
  HS02004802           JUNCTION      0.00   147.68     0  02:12           0       0.866       0.458
  HS02004799           JUNCTION     31.23   361.12     0  02:08       0.133        1.63       0.172
  HS02004792           JUNCTION    140.25   330.29     0  02:08       0.628         1.5       0.028
  HS02004788           JUNCTION     46.22   190.88     0  02:09       0.245       0.868       0.045
  HS02004785           JUNCTION      0.15   144.86     0  02:08     0.00432       0.624       0.079
  HS02004777           JUNCTION      0.03   144.88     0  02:07    0.000864       0.624       0.838
  HS02004770           JUNCTION    117.35   145.35     0  02:07       0.509       0.626       0.496
  HS02004480           JUNCTION      0.00   425.80     0  02:09           0         1.9       0.056
  HS02004479           JUNCTION      0.00    64.80     0  02:08           0       0.288       0.255
  HS02004478           JUNCTION      0.00   571.55     0  02:10           0        2.75       0.011
  YS02001745           JUNCTION    388.02   388.02     0  02:47        3.47        3.47       0.329
  YS02001748           JUNCTION      0.04   390.62     0  02:43      0.0013        3.46       0.669
  YS02001751           JUNCTION      0.01   390.76     0  02:43    0.000317        3.44       0.692
  YS02001754           JUNCTION      0.26   391.03     0  02:43     0.00749        3.42       0.722
  YS02001762           JUNCTION      0.00   392.87     0  02:11           0        2.41       0.878
  YS02001765           JUNCTION      0.00   393.14     0  02:12           0        2.42       1.011
  YS02001767           JUNCTION      0.54   392.46     0  02:12      0.0154        2.44       1.476
  YS02001770           JUNCTION    470.91   769.95     0  02:55        3.85        5.08       0.622
  YS02001774           JUNCTION      0.00   769.95     0  02:54           0        3.85       0.657
  YS02001779           JUNCTION      0.01   769.96     0  02:54    0.000144        3.82       0.401
  YS02001882           JUNCTION      0.00    24.19     0  02:05           0      0.0228       6.817
  YS02001884           JUNCTION      0.00    37.13     0  02:04           0      0.0598       9.359
  YS02001759           JUNCTION    453.54   785.26     0  02:12        3.55        4.71       0.487
  YS02001887           JUNCTION    562.38   562.92     0  02:28        4.04        4.07       0.182
  YS02001890           JUNCTION      0.00   563.34     0  02:28           0        4.03       0.200
  YS02001898           JUNCTION      0.00   517.62     0  02:22           0        3.95       0.047
  YS02001901           JUNCTION      0.00   517.69     0  02:22           0        3.95       0.148
  YS02001904           JUNCTION      0.00   517.77     0  02:15           0        3.94       0.114
  YS02001907           JUNCTION      0.00  1046.03     0  02:13           0        8.96       0.243
  YS02001910           JUNCTION      0.00   534.43     0  02:13           0        5.03       0.215
  YS02001915           JUNCTION    337.41   533.85     0  02:13        2.89        5.05       0.099
  YS02001918           JUNCTION      0.00   253.76     0  02:13           0        2.18       0.052
  YS02001619           JUNCTION    333.79   333.79     0  02:45        2.89        2.89       0.426
  YS02001629           JUNCTION      0.00   233.27     0  02:06           0         1.5       1.959
  YS02001641           JUNCTION      0.00   486.99     0  02:07           0        4.85       0.434
  YS02001644           JUNCTION    371.09  1597.44     0  02:49        3.35        14.8       0.172
  YS02001652           JUNCTION      0.00   445.95     0  02:26           0        2.99       0.775
  YS02001655           JUNCTION      0.15   445.41     0  02:26     0.00443        3.01       0.833
  YS02001920           JUNCTION      2.87   253.03     0  02:13      0.0827        2.16       0.115
  YS02001923           JUNCTION      0.04   250.76     0  02:12     0.00109        2.07       0.045
  YS02001926           JUNCTION      0.05   189.86     0  03:00      0.0015        2.07       0.160
  YS02001929           JUNCTION    188.28   188.28     0  03:01        2.07        2.07       0.034
  YS02001658           JUNCTION      0.00   465.42     0  02:18           0        3.03       0.818
  YS02001661           JUNCTION      0.00   742.79     0  02:11           0        3.05       0.528
  YS02001664           JUNCTION    411.73   411.73     0  02:32        3.06        3.06       0.177
  YS02001622           JUNCTION      0.00   334.38     0  02:43           0        2.88       1.116
  YS02001633           JUNCTION    378.36   487.23     0  02:07        3.45        4.91       0.656
  YS02001649           JUNCTION      0.00  1053.45     0  02:08           0        8.35       0.441
  YS02001757           JUNCTION      0.00  2058.99     0  02:09           0        8.71       1.069
  YS02001895           JUNCTION      0.00   517.74     0  02:29           0        3.95       0.108
  YS02001625           JUNCTION      0.00   333.96     0  02:43           0        2.85       1.378
  YS02163301           JUNCTION      0.00   233.50     0  02:06           0        1.49       1.631
  YS02163601           JUNCTION      0.11   487.39     0  02:07     0.00317        4.87       0.619
  YS02164001           JUNCTION      0.00   487.43     0  02:07           0        4.85       0.416
  YS02001647           JUNCTION      0.00   846.70     0  03:02           0        7.62       0.374
  YSB1154              JUNCTION     36.52    36.52     0  02:07        0.16       0.161       0.906
  YSB6556              JUNCTION      0.00    36.32     0  02:08           0       0.162       0.779
  YSB1174              JUNCTION     29.95    29.95     0  02:05       0.119       0.119       1.087
  YSB1171              JUNCTION      0.00    64.97     0  02:08           0       0.287       2.260
  YS02006553           JUNCTION      0.00   713.40     0  02:11           0         7.2       0.190
  YS02006561           JUNCTION      0.00  1143.39     0  02:16           0        10.9       0.002
  YS02006556           JUNCTION      0.00   712.23     0  02:11           0        7.21       0.119
  YS02006558           JUNCTION    491.78  1144.34     0  02:17        3.74        10.9       0.039
  YS02001783           JUNCTION      0.00  1143.45     0  02:16           0        10.9       0.016
  YS02001784           JUNCTION      1.06  1144.53     0  02:16      0.0305        10.9       0.032
  YS02001786           JUNCTION      0.06  1144.48     0  02:16     0.00162        10.9       0.030
  YS02001788           JUNCTION      0.07  1144.48     0  02:17     0.00204        10.9       0.017
  YS02001790           JUNCTION      0.15  1156.71     0  02:16     0.00446        10.9       0.023
  YS02001791           JUNCTION      0.00  1255.87     0  02:16           0        10.9       0.006
  YS02001793           JUNCTION      0.00  1227.56     0  02:14           0        10.9      -0.001
  WSC                  OUTFALL       0.00   420.90     0  02:22           0        3.31       0.000
  3                    OUTFALL       0.00   440.91     0  02:13           0        5.36       0.000
  4                    OUTFALL       0.00   106.05     0  02:10           0       0.484       0.000
  5                    OUTFALL       0.00   352.21     0  02:22           0        8.61       0.000
  JK-storage           STORAGE       0.00  1238.84     0  02:12           0        11.1      -0.263
  CC-storage           STORAGE       0.00  2057.96     0  02:09           0        4.14       1.594
  XR-storage           STORAGE     976.60   976.60     0  03:01        14.2        14.8      -0.003
  
  
  **********************
  Node Surcharge Summary
  **********************
  
  Surcharging occurs when water rises above the top of the highest conduit.
  ---------------------------------------------------------------------
                                               Max. Height   Min. Depth
                                   Hours       Above Crown    Below Rim
  Node                 Type      Surcharged         Meters       Meters
  ---------------------------------------------------------------------
  WS02006109           JUNCTION        0.40          0.049        1.771
  WS02006256           JUNCTION        6.58          2.050        0.000
  WS02006228           JUNCTION        0.38          0.055        2.145
  YS02001748           JUNCTION        5.90          0.322        0.868
  YS02001751           JUNCTION        5.98          0.592        0.608
  YS02001754           JUNCTION        6.09          0.805        0.345
  YS02001762           JUNCTION        6.19          1.068        0.082
  YS02001765           JUNCTION        6.18          1.016        0.084
  YS02001767           JUNCTION        6.17          0.968        0.062
  YS02001770           JUNCTION        6.16          0.914        0.006
  YS02001774           JUNCTION        6.19          0.990        0.060
  YS02001779           JUNCTION        6.08          0.680        0.000
  YS02001882           JUNCTION        1.64          0.633        0.197
  YS02001884           JUNCTION        1.67          0.671        0.199
  YS02001759           JUNCTION        6.21          1.101        0.109
  YS02001887           JUNCTION        1.75          0.756        0.194
  YS02001890           JUNCTION        1.78          0.760        0.000
  YS02001898           JUNCTION        1.59          0.537        0.203
  YS02001901           JUNCTION        1.72          0.677        0.193
  YS02001904           JUNCTION        1.70          0.637        0.213
  YS02001907           JUNCTION        2.19          0.950        0.000
  YS02001910           JUNCTION        1.82          0.786        0.314
  YS02001915           JUNCTION        1.63          0.601        0.399
  YS02001918           JUNCTION        1.38          0.286        0.524
  YS02001619           JUNCTION        5.99          0.479        0.131
  YS02001629           JUNCTION        5.99          0.465        0.005
  YS02001641           JUNCTION        6.18          0.934        0.166
  YS02001644           JUNCTION        6.18          0.920        0.000
  YS02001652           JUNCTION        6.13          0.979        0.151
  YS02001655           JUNCTION        5.99          0.890        0.310
  YS02001920           JUNCTION        1.41          0.363        0.777
  YS02001658           JUNCTION        5.93          0.724        0.576
  YS02001661           JUNCTION        0.09          0.651        0.739
  YS02001622           JUNCTION        5.99          0.501        0.119
  YS02001633           JUNCTION        6.17          0.925        0.135
  YS02001649           JUNCTION        6.20          1.050        0.000
  YS02001757           JUNCTION        6.25          1.195        0.015
  YS02001895           JUNCTION        1.61          0.567        0.183
  YS02001625           JUNCTION        6.14          0.780        0.000
  YS02163301           JUNCTION        6.16          0.882        0.148
  YS02163601           JUNCTION        6.19          0.987        0.093
  YS02164001           JUNCTION        6.18          0.921        0.179
  YS02001647           JUNCTION        6.13          0.804        0.096
  YS02006553           JUNCTION        2.26          1.025        0.165
  YS02006561           JUNCTION        1.46          0.440        0.710
  YS02006556           JUNCTION        2.00          1.031        0.319
  YS02006558           JUNCTION        1.97          1.038        0.362
  YS02001783           JUNCTION        1.98          0.875        0.725
  YS02001784           JUNCTION        1.98          0.850        0.640
  YS02001786           JUNCTION        1.90          0.739        0.691
  YS02001788           JUNCTION        1.75          0.629        0.851
  YS02001790           JUNCTION        1.83          0.708        0.449
  YS02001791           JUNCTION        1.85          0.478        1.442
  YS02001793           JUNCTION        1.94          0.804        1.796
  
  
  *********************
  Node Flooding Summary
  *********************
  
  Flooding refers to all water that overflows a node, whether it ponds or not.
  --------------------------------------------------------------------------
                                                             Total   Maximum
                                 Maximum   Time of Max       Flood    Ponded
                        Hours       Rate    Occurrence      Volume     Depth
  Node                 Flooded       LPS   days hr:min    10^6 ltr    Meters
  --------------------------------------------------------------------------
  WS02006256              3.78    678.53      0  00:00       4.344     0.000
  YS02001779              3.21    769.96      0  02:55       3.805     0.000
  YS02001890              0.67     47.32      0  02:28       0.071     0.000
  YS02001907              1.21    552.71      0  02:38       1.748     0.000
  YS02001644              5.86   1597.43      0  02:49      13.858     0.000
  YS02001649              0.28     95.42      0  02:55       0.059     0.000
  YS02001625              1.76    333.60      0  02:46       1.312     0.000
  JK-storage              1.71    312.53      0  02:18       1.412     0.000
  XR-storage              5.65    691.58      0  03:01       5.648     0.000
  
  
  **********************
  Storage Volume Summary
  **********************
  
  --------------------------------------------------------------------------------------------------
                         Average     Avg  Evap Exfil       Maximum     Max    Time of Max    Maximum
                          Volume    Pcnt  Pcnt  Pcnt        Volume    Pcnt     Occurrence    Outflow
  Storage Unit           1000 m3    Full  Loss  Loss       1000 m3    Full    days hr:min        LPS
  --------------------------------------------------------------------------------------------------
  JK-storage               0.099      34     0     0         0.291     100       0  02:18     683.00
  CC-storage               3.039      19     0     0         4.070      26       0  02:51     112.92
  XR-storage               0.797      86     0     0         0.926     100       0  02:20     285.00
  
  
  ***********************
  Outfall Loading Summary
  ***********************
  
  ---------------------------------------------------------------------------------------------------------------------------------
                         Flow       Avg       Max       Total         Total         Total         Total         Total         Total
                         Freq      Flow      Flow      Volume           COD            SS            TN            TP         NH4-N
  Outfall Node           Pcnt       LPS       LPS    10^6 ltr            kg            kg            kg            kg            kg
  ---------------------------------------------------------------------------------------------------------------------------------
  WSC                   99.98    143.48    420.90       3.307       456.869       833.694        21.995         2.455        12.923
  3                     99.98    220.64    440.91       5.363       343.812       660.872         6.851         0.504         3.366
  4                     99.97     23.65    106.05       0.484        57.096       113.801         1.252         0.094         0.620
  5                     99.99    302.44    352.21       8.607      1224.138      2048.601        96.817        11.780        59.570
  ---------------------------------------------------------------------------------------------------------------------------------
  System                99.98    690.21   1294.10      17.761      2081.915      3656.968       126.915        14.833        76.479
  
  
  ********************
  Link Flow Summary
  ********************
  
  -----------------------------------------------------------------------------
                                 Maximum  Time of Max   Maximum    Max/    Max/
                                  |Flow|   Occurrence   |Veloc|    Full    Full
  Link                 Type          LPS  days hr:min     m/sec    Flow   Depth
  -----------------------------------------------------------------------------
  WS02003066WSF200     CONDUIT    462.48     0  02:18      2.77    0.08    0.20
  WS02006287WS02006284 CONDUIT    571.67     0  02:10      2.26    0.26    0.36
  WS02006284WS02006280 CONDUIT    571.84     0  02:10      2.50    0.24    0.33
  WS02006280WS02006229 CONDUIT    571.85     0  02:10      4.04    0.12    0.24
  WS02006229WS02006228 CONDUIT    444.41     0  02:11      0.88    1.47    1.00
  WS02006256WS02006235 CONDUIT    289.81     0  02:21      4.46    3.07    0.93
  WS02006253WS02006251 CONDUIT    121.36     0  02:09      0.88    0.36    0.39
  WS02006252WS02006251 CONDUIT      0.00     0  00:00      0.00    0.00    0.00
  WS02006251WS02006249 CONDUIT     15.39     0  02:10      0.38    0.04    0.16
  WS02006249WS02006248 CONDUIT     15.32     0  02:11      0.45    0.08    0.14
  WS02006248WS02006247 CONDUIT     15.32     0  02:11      0.45    0.03    0.14
  WS02006247WS02006245 CONDUIT     15.29     0  02:12      0.40    0.12    0.16
  WS02006245WS02006243 CONDUIT     15.29     0  02:13      0.52    0.05    0.13
  WS02006243WS02006242 CONDUIT     15.26     0  02:14      0.36    0.03    0.17
  WS02006242WS02006240 CONDUIT     15.38     0  02:16      0.25    0.06    0.22
  WS02006240WS02006239 CONDUIT     15.71     0  02:17      0.25    0.05    0.23
  WS02006239WS02006238 CONDUIT     17.97     0  00:01      0.44    0.06    0.34
  WS02006238WS02006235 CONDUIT     49.29     0  00:00      1.18    0.11    0.39
  WS02006235WS02006234 CONDUIT    136.98     0  02:12      0.94    1.45    0.40
  WS02006234WS02006232 CONDUIT    137.04     0  02:11      0.82    0.28    0.59
  WS02006232WS02006231 CONDUIT    137.17     0  02:11      0.53    0.29    0.64
  WS02006231WS02006230 CONDUIT    137.49     0  02:10      0.57    2.09    0.60
  WS02006230WS02006229 CONDUIT    127.52     0  02:10      0.44    2.84    1.00
  WS02006228WS02006109 CONDUIT    444.41     0  02:11      0.88    1.94    1.00
  WS02006116WS02004401 CONDUIT    465.01     0  02:13      0.69    0.64    0.80
  WS02006115WS02006116 CONDUIT    465.84     0  02:13      0.91    0.60    0.71
  WS02006113WS02006111 CONDUIT    459.03     0  02:10      2.30    0.55    0.42
  WS02006112WS02006115 CONDUIT    466.98     0  02:13      0.66    0.28    0.84
  WS02006111WS02006112 CONDUIT    447.72     0  02:13      1.28    0.21    0.66
  WS02006110WS02006113 CONDUIT    445.77     0  02:11      1.09    0.41    0.76
  WS02006109WS02006110 CONDUIT    445.64     0  02:11      0.90    0.86    0.96
  WS02004411WS02004412 CONDUIT    462.84     0  02:17      0.93    0.66    0.65
  WS02004401WS02004402 CONDUIT    465.49     0  02:14      0.67    0.56    0.83
  WS02004413WS02003067 CONDUIT    462.46     0  02:18      1.02    0.20    0.56
  WS02004412WS02004413 CONDUIT    462.58     0  02:18      0.90    0.31    0.73
  WS02004410WS02004411 CONDUIT    463.11     0  02:17      0.88    0.63    0.64
  WS02004409WS02004410 CONDUIT    463.64     0  02:16      0.91    0.60    0.62
  WS02004407WS02004409 CONDUIT    464.25     0  02:16      1.39    0.16    0.44
  WS02004406WS02004407 CONDUIT    464.34     0  02:16      0.95    0.21    0.59
  WS02004405WS02004406 CONDUIT    468.22     0  02:13      0.62    0.92    0.92
  WS02004404WS02004405 CONDUIT    516.91     0  02:14      0.68    5.06    0.92
  WS02004403WS02004404 CONDUIT    474.83     0  02:12      0.64    0.34    0.90
  WS02004402WS02004403 CONDUIT    465.52     0  02:14      0.66    0.67    0.85
  WS02004139WS02001211 CONDUIT     66.91     0  02:22      0.45    0.08    0.19
  WS02004138WS02004139 CONDUIT    292.30     0  00:00      3.35    0.06    0.17
  WS02003067WS02003066 CONDUIT    462.48     0  02:18      1.11    0.15    0.40
  WS02001213WS02003059 CONDUIT     59.82     0  02:19      0.20    0.10    0.53
  WS02001212WS02001213 CONDUIT     59.68     0  02:20      0.72    0.09    0.16
  WS02001211WS02001212 CONDUIT     59.62     0  02:20      0.42    0.05    0.24
  WS02003072WS02003073 CONDUIT    419.17     0  02:21      1.30    0.91    0.33
  WS02003069WS02003072 CONDUIT    419.19     0  02:20      1.25    0.20    0.34
  WS02003060WS02003069 CONDUIT    418.89     0  02:20      1.53    0.16    0.29
  WS02003059WS02003060 CONDUIT     85.26     0  01:48      0.56    0.06    0.45
  HS02004901HS02004770 CONDUIT     28.07     0  02:07      0.08    0.11    0.48
  HS02004876HS02004881 CONDUIT    107.66     0  02:09      1.12    1.15    0.14
  HS02004870HS02004876 CONDUIT     87.07     0  02:09      0.76    0.06    0.16
  HS02004842HS02004848 CONDUIT     15.12     0  02:21      0.07    0.01    0.32
  HS02004837HS02004842 CONDUIT     15.46     0  02:22      0.42    0.01    0.34
  HS02004830HS02004837 CONDUIT     55.55     0  02:10      0.63    0.06    0.13
  HS02004824HS02004830 CONDUIT     55.70     0  02:10      0.62    0.07    0.14
  HS02004817HS02004824 CONDUIT    109.73     0  02:13      0.29    0.05    0.54
  HS02004770HS02004777 CONDUIT    144.85     0  02:07      0.42    0.26    0.49
  HS02004799HS02004480 CONDUIT    361.02     0  02:08      0.97    0.46    0.53
  HS02004792HS02004799 CONDUIT    330.24     0  02:08      1.09    0.20    0.43
  HS02004788HS02004792 CONDUIT    190.83     0  02:09      1.18    0.13    0.23
  HS02004785HS02004788 CONDUIT    144.83     0  02:09      0.82    1.09    0.25
  HS02004777HS02004785 CONDUIT    144.71     0  02:08      0.50    0.18    0.41
  HS02004480HS02004478 CONDUIT    425.83     0  02:09      1.44    1.79    0.42
  HS02004479HS02004480 CONDUIT     64.84     0  02:09      0.33    0.06    0.51
  HS02004862HS02004870 CONDUIT     66.53     0  02:10      0.75    0.07    0.13
  HS02004848HS02004852 CONDUIT     30.83     0  02:10      0.50    0.03    0.09
  HS02004856HS02004862 CONDUIT     46.23     0  02:10      0.55    0.05    0.12
  HS02004852HS02004856 CONDUIT     30.87     0  02:11      0.30    0.04    0.15
  HS02004802HS02004478 CONDUIT    148.20     0  02:13      0.49    0.13    0.43
  HS02004478WS02006287 CONDUIT    571.59     0  02:10      1.98    0.16    0.32
  HS02004817HS02004807 CONDUIT    111.13     0  02:14      0.23    0.07    0.71
  HS02004807HS02004802 CONDUIT    147.68     0  02:12      0.43    0.28    0.49
  YS02001759YS02001757 CONDUIT    785.00     0  02:12      1.00    0.56    1.00
  YS02001762YS02001759 CONDUIT    392.97     0  02:11      0.50    0.45    1.00
  YS02001765YS02001762 CONDUIT    392.87     0  02:11      0.50    0.37    1.00
  YS02001770YS02001767 CONDUIT    391.92     0  02:12      0.50    1.55    1.00
  YS02001774YS02001770 CONDUIT    769.95     0  02:54      0.98    0.49    1.00
  YS02001779YS02001774 CONDUIT    769.95     0  02:54      0.98    0.39    1.00
  YS02001649YS02001757 CONDUIT   1054.13     0  02:08      1.34    0.64    1.00
  YS02001767YS02001765 CONDUIT    393.14     0  02:12      0.50    0.49    1.00
  YS02006561YS02001783 CONDUIT   1143.45     0  02:16      2.27    0.59    1.00
  YS02001783YS02001784 CONDUIT   1143.47     0  02:16      2.27    1.58    1.00
  YS02001784YS02001785 CONDUIT   1144.43     0  02:16      2.28    2.66    1.00
  YS02001788YS02001790 CONDUIT   1156.56     0  02:16      2.70    0.85    1.00
  YS02001790YS02001791 CONDUIT   1255.87     0  02:16      3.39    1.37    1.00
  YS02001791YS02001793 CONDUIT   1227.56     0  02:14      6.66    0.53    1.00
  YS02001910YS02001907 CONDUIT    534.18     0  02:13      0.68    0.30    1.00
  YS02001786YS02001788 CONDUIT   1144.41     0  02:17      2.45    2.21    1.00
  YS02001915YS02001910 CONDUIT    534.43     0  02:13      0.68    0.27    1.00
  YS02001918YS02001915 CONDUIT    254.91     0  02:13      0.46    0.14    1.00
  YS02001923YS02001920 CONDUIT    250.16     0  02:13      0.77    0.11    1.00
  YS02001926YS02001923 CONDUIT    250.73     0  02:12      0.86    0.36    0.93
  YS02001929YS02001926 CONDUIT    189.81     0  03:00      0.92    0.09    0.82
  YS02001920YS02001918 CONDUIT    253.76     0  02:13      0.74    0.25    1.00
  YS02001629YS02163301 CONDUIT    233.50     0  02:06      0.30    0.29    1.00
  YS02001619YS02001622 CONDUIT    334.38     0  02:43      0.67    0.49    1.00
  YS02001622YS02001625 CONDUIT    333.96     0  02:43      0.43    0.18    1.00
  YS02001625YS02001629 CONDUIT    233.27     0  02:06      0.30    0.11    1.00
  YS02163301YS02001633 CONDUIT    233.66     0  02:06      0.30    0.22    1.00
  YS02163601YS02164001 CONDUIT    487.43     0  02:07      0.62    0.43    1.00
  YS02164001YS02001641 CONDUIT    486.99     0  02:07      0.62    0.66    1.00
  YS02001641YS02001644 CONDUIT    486.74     0  02:07      0.62    1.57    1.00
  YS02001647YS02001649 CONDUIT    846.70     0  03:02      1.08    0.45    1.00
  YS02006553YS02006556 CONDUIT    712.23     0  02:11      0.91    0.61    1.00
  YS02006556YS02006558 CONDUIT    712.31     0  02:11      0.91    0.56    1.00
  YSB6556YSB1171       CONDUIT     36.30     0  02:09      0.11    0.04    0.78
  YS02001907YS02006553 CONDUIT    713.40     0  02:11      0.79    0.84    1.00
  YS02006558YS02006561 CONDUIT   1143.39     0  02:16      4.04    2.53    1.00
  YS02001633YS02163601 CONDUIT    487.28     0  02:07      0.62    0.51    1.00
  YS02001644YS02001647 CONDUIT    846.70     0  03:02      1.08    0.50    1.00
  YS02001745YS02001748 CONDUIT    390.58     0  02:43      1.56    0.15    0.98
  YS02001748YS02001751 CONDUIT    390.75     0  02:43      1.12    0.20    1.00
  YS02001751YS02001754 CONDUIT    390.77     0  02:43      0.94    0.19    1.00
  YS02001754YS02001757 CONDUIT    390.47     0  02:43      0.50    0.16    1.00
  YS02001882YS02001884 CONDUIT     24.19     0  02:05      0.14    0.03    1.00
  YS02001884YS02001887 CONDUIT     37.13     0  02:04      0.10    0.05    1.00
  YS02001890YS02001895 CONDUIT    517.74     0  02:29      0.66    0.24    1.00
  YS02001895YS02001898 CONDUIT    517.62     0  02:22      0.66    0.90    1.00
  YS02001898YS02001901 CONDUIT    517.69     0  02:22      0.66    0.33    1.00
  YS02001901YS02001904 CONDUIT    517.77     0  02:15      0.66    0.80    1.00
  YS02001904YS02001907 CONDUIT    517.80     0  02:29      0.66    0.18    1.00
  YS02001887YS02001890 CONDUIT    563.34     0  02:28      0.72    0.96    1.00
  YS02001652YS02001649 CONDUIT    446.98     0  02:26      0.64    0.22    1.00
  YS02001655YS02001652 CONDUIT    445.95     0  02:26      1.01    0.22    1.00
  YS02001658YS02001655 CONDUIT    445.25     0  02:26      1.30    0.19    1.00
  YS02001661YS02001658 CONDUIT    465.42     0  02:18      1.65    0.18    1.00
  YS02001664YS02001661 CONDUIT    742.79     0  02:11      1.68    0.23    0.77
  YSB1154YSB6556       CONDUIT     36.32     0  02:08      0.15    0.07    0.67
  YSB1174YSB1171       CONDUIT     29.30     0  02:05      0.09    0.04    0.79
  YSB1171HS02004479    CONDUIT     64.80     0  02:08      0.54    0.04    0.63
  HS02004881HS02006253 CONDUIT    118.67     0  02:09      2.55    0.02    0.07
  YS02001793JiankangQianchi CONDUIT   1238.84     0  02:12     17.37    0.10    1.00
  YS02001757CaochengTiaoxuchi CONDUIT   2057.96     0  02:09      3.03    0.90    1.00
  WSF200WS02003060     CONDUIT    462.49     0  02:18      2.11    0.10    0.25
  1                    CONDUIT    420.90     0  02:22      2.61    0.15    0.26
  CC-Pump-1            PUMP         0.00     0  00:00              0.00
  CC-Pump-2            PUMP         0.00     0  00:00              0.00
  JK-Pump-1            PUMP         0.00     0  00:00              0.00
  JK-Pump-2            PUMP       683.00     0  00:00              1.00
  XR-Pump-1            PUMP        95.00     0  00:00              1.00
  XR-Pump-2            PUMP         0.00     0  00:00              0.00
  XR-Pump-3            PUMP        95.00     0  00:00              1.00
  XR-Pump-4            PUMP        95.00     0  00:00              1.00
  3                    WEIR       106.05     0  02:10                      0.10
  5                    WEIR       440.91     0  02:13                      0.26
  6                    WEIR       352.21     0  02:22                      0.22
  
  
  ***************************
  Flow Classification Summary
  ***************************
  
  -------------------------------------------------------------------------------------
                      Adjusted    ---------- Fraction of Time in Flow Class ---------- 
                       /Actual         Up    Down  Sub   Sup   Up    Down  Norm  Inlet 
  Conduit               Length    Dry  Dry   Dry   Crit  Crit  Crit  Crit  Ltd   Ctrl  
  -------------------------------------------------------------------------------------
  WS02003066WSF200        1.00   0.13  0.00  0.00  0.00  0.87  0.00  0.00  0.78  0.00
  WS02006287WS02006284    1.00   0.05  0.02  0.00  0.51  0.42  0.00  0.00  0.63  0.00
  WS02006284WS02006280    1.00   0.06  0.00  0.00  0.00  0.00  0.00  0.94  0.00  0.00
  WS02006280WS02006229    1.00   0.06  0.00  0.00  0.00  0.00  0.00  0.94  0.00  0.00
  WS02006229WS02006228    1.00   0.00  0.00  0.00  0.99  0.00  0.00  0.01  0.00  0.00
  WS02006256WS02006235    1.00   0.00  0.00  0.00  0.09  0.91  0.00  0.00  0.02  0.00
  WS02006253WS02006251    1.00   0.02  0.03  0.00  0.00  0.00  0.95  0.00  0.00  0.00
  WS02006252WS02006251    1.00   1.00  0.00  0.00  0.00  0.00  0.00  0.00  0.00  0.00
  WS02006251WS02006249    1.00   0.00  0.00  0.00  1.00  0.00  0.00  0.00  0.97  0.00
  WS02006249WS02006248    1.00   0.00  0.07  0.00  0.00  0.00  0.93  0.00  0.00  0.00
  WS02006248WS02006247    1.00   0.07  0.00  0.00  0.79  0.00  0.00  0.14  0.34  0.00
  WS02006247WS02006245    1.00   0.07  0.00  0.00  0.66  0.00  0.00  0.27  0.00  0.00
  WS02006245WS02006243    1.00   0.07  0.00  0.00  0.35  0.00  0.00  0.57  0.00  0.00
  WS02006243WS02006242    1.00   0.02  0.06  0.00  0.91  0.00  0.00  0.01  0.81  0.00
  WS02006242WS02006240    1.00   0.00  0.07  0.00  0.70  0.00  0.22  0.00  0.18  0.00
  WS02006240WS02006239    1.00   0.00  0.00  0.00  0.90  0.00  0.00  0.09  0.25  0.00
  WS02006239WS02006238    1.00   0.00  0.00  0.00  1.00  0.00  0.00  0.00  0.14  0.00
  WS02006238WS02006235    1.00   0.00  0.00  0.00  1.00  0.00  0.00  0.00  0.00  0.00
  WS02006235WS02006234    1.00   0.07  0.00  0.00  0.90  0.00  0.02  0.01  0.00  0.00
  WS02006234WS02006232    1.00   0.00  0.00  0.00  1.00  0.00  0.00  0.00  0.13  0.00
  WS02006232WS02006231    1.00   0.00  0.00  0.00  0.99  0.00  0.00  0.00  0.01  0.00
  WS02006231WS02006230    1.00   0.00  0.00  0.00  0.33  0.00  0.66  0.00  0.00  0.00
  WS02006230WS02006229    1.00   0.00  0.00  0.00  0.98  0.00  0.00  0.02  0.02  0.00
  WS02006228WS02006109    1.00   0.00  0.00  0.00  1.00  0.00  0.00  0.00  0.00  0.00
  WS02006116WS02004401    1.00   0.05  0.00  0.00  0.95  0.00  0.00  0.00  0.00  0.00
  WS02006115WS02006116    1.00   0.05  0.00  0.00  0.91  0.00  0.00  0.05  0.00  0.00
  WS02006113WS02006111    1.00   0.03  0.00  0.00  0.01  0.96  0.00  0.00  0.09  0.00
  WS02006112WS02006115    1.00   0.03  0.02  0.00  0.95  0.00  0.00  0.00  0.00  0.00
  WS02006111WS02006112    1.00   0.03  0.00  0.00  0.97  0.00  0.00  0.00  0.93  0.00
  WS02006110WS02006113    1.00   0.01  0.02  0.00  0.97  0.00  0.00  0.00  0.00  0.00
  WS02006109WS02006110    1.00   0.00  0.01  0.00  0.99  0.00  0.00  0.00  0.00  0.00
  WS02004411WS02004412    1.00   0.10  0.00  0.00  0.90  0.00  0.00  0.00  0.00  0.00
  WS02004401WS02004402    1.00   0.05  0.00  0.00  0.95  0.00  0.00  0.00  0.04  0.00
  WS02004413WS02003067    1.00   0.11  0.01  0.00  0.00  0.00  0.88  0.00  0.00  0.00
  WS02004412WS02004413    1.00   0.11  0.00  0.00  0.89  0.00  0.00  0.00  0.00  0.00
  WS02004410WS02004411    1.00   0.10  0.00  0.00  0.90  0.00  0.00  0.00  0.00  0.00
  WS02004409WS02004410    1.00   0.10  0.00  0.00  0.90  0.00  0.00  0.00  0.00  0.00
  WS02004407WS02004409    1.00   0.10  0.00  0.00  0.89  0.01  0.00  0.00  0.80  0.00
  WS02004406WS02004407    1.00   0.00  0.10  0.00  0.90  0.00  0.00  0.00  0.00  0.00
  WS02004405WS02004406    1.00   0.00  0.00  0.00  1.00  0.00  0.00  0.00  0.04  0.00
  WS02004404WS02004405    1.00   0.00  0.00  0.00  1.00  0.00  0.00  0.00  0.01  0.00
  WS02004403WS02004404    1.00   0.00  0.05  0.00  0.95  0.00  0.00  0.00  0.04  0.00
  WS02004402WS02004403    1.00   0.05  0.00  0.00  0.95  0.00  0.00  0.00  0.00  0.00
  WS02004139WS02001211    1.00   0.00  0.00  0.00  1.00  0.00  0.00  0.00  0.00  0.00
  WS02004138WS02004139    1.00   0.00  0.00  0.00  0.00  0.11  0.00  0.89  0.07  0.00
  WS02003067WS02003066    1.00   0.12  0.01  0.00  0.87  0.00  0.00  0.00  0.00  0.00
  WS02001213WS02003059    1.00   0.00  0.00  0.00  0.99  0.00  0.00  0.00  0.00  0.00
  WS02001212WS02001213    1.00   0.01  0.00  0.00  0.40  0.00  0.59  0.00  0.01  0.00
  WS02001211WS02001212    1.00   0.00  0.01  0.00  0.99  0.00  0.00  0.00  0.22  0.00
  WS02003072WS02003073    1.00   0.00  0.00  0.00  0.00  0.00  0.00  1.00  0.00  0.00
  WS02003069WS02003072    1.00   0.00  0.00  0.00  1.00  0.00  0.00  0.00  0.93  0.00
  WS02003060WS02003069    1.00   0.00  0.00  0.00  0.98  0.02  0.00  0.00  0.81  0.00
  WS02003059WS02003060    1.00   0.00  0.00  0.00  1.00  0.00  0.00  0.00  0.08  0.00
  HS02004901HS02004770    1.00   0.06  0.00  0.00  0.94  0.00  0.00  0.00  0.00  0.00
  HS02004876HS02004881    1.00   0.01  0.00  0.00  0.77  0.22  0.00  0.00  0.00  0.00
  HS02004870HS02004876    1.00   0.00  0.00  0.00  0.99  0.00  0.00  0.00  0.95  0.00
  HS02004842HS02004848    1.00   0.00  0.06  0.00  0.94  0.00  0.00  0.00  0.57  0.00
  HS02004837HS02004842    1.00   0.00  0.00  0.00  1.00  0.00  0.00  0.00  0.11  0.00
  HS02004830HS02004837    1.00   0.00  0.00  0.00  1.00  0.00  0.00  0.00  0.99  0.00
  HS02004824HS02004830    1.00   0.00  0.00  0.00  1.00  0.00  0.00  0.00  0.00  0.00
  HS02004817HS02004824    1.00   0.00  0.00  0.00  1.00  0.00  0.00  0.00  0.95  0.00
  HS02004770HS02004777    1.00   0.00  0.06  0.00  0.94  0.00  0.00  0.00  0.02  0.00
  HS02004799HS02004480    1.00   0.00  0.02  0.00  0.93  0.00  0.05  0.00  0.00  0.00
  HS02004792HS02004799    1.00   0.00  0.00  0.00  0.99  0.01  0.00  0.00  0.98  0.00
  HS02004788HS02004792    1.00   0.00  0.00  0.00  0.99  0.01  0.00  0.00  0.98  0.00
  HS02004785HS02004788    1.00   0.00  0.00  0.00  1.00  0.00  0.00  0.00  0.00  0.00
  HS02004777HS02004785    1.00   0.00  0.00  0.00  1.00  0.00  0.00  0.00  0.11  0.00
  HS02004480HS02004478    1.00   0.06  0.00  0.00  0.56  0.00  0.00  0.38  0.00  0.00
  HS02004479HS02004480    1.00   0.02  0.00  0.00  0.98  0.00  0.00  0.00  0.11  0.00
  HS02004862HS02004870    1.00   0.00  0.00  0.00  1.00  0.00  0.00  0.00  0.03  0.00
  HS02004848HS02004852    1.00   0.06  0.00  0.00  0.94  0.00  0.00  0.00  0.75  0.00
  HS02004856HS02004862    1.00   0.00  0.07  0.00  0.93  0.00  0.00  0.00  0.84  0.00
  HS02004852HS02004856    1.00   0.06  0.00  0.00  0.94  0.00  0.00  0.00  0.79  0.00
  HS02004802HS02004478    1.00   0.06  0.00  0.00  0.94  0.00  0.00  0.00  0.02  0.00
  HS02004478WS02006287    1.00   0.07  0.00  0.00  0.61  0.32  0.00  0.00  0.64  0.00
  HS02004817HS02004807    1.00   0.00  0.06  0.00  0.94  0.00  0.00  0.00  0.01  0.00
  HS02004807HS02004802    1.00   0.06  0.00  0.00  0.93  0.00  0.00  0.01  0.00  0.00
  YS02001759YS02001757    1.00   0.00  0.00  0.00  1.00  0.00  0.00  0.00  0.15  0.00
  YS02001762YS02001759    1.00   0.00  0.00  0.00  1.00  0.00  0.00  0.00  0.03  0.00
  YS02001765YS02001762    1.00   0.00  0.00  0.00  1.00  0.00  0.00  0.00  0.13  0.00
  YS02001770YS02001767    1.00   0.00  0.00  0.00  1.00  0.00  0.00  0.00  0.00  0.00
  YS02001774YS02001770    1.00   0.00  0.06  0.00  0.94  0.00  0.00  0.00  0.02  0.00
  YS02001779YS02001774    1.00   0.00  0.00  0.00  1.00  0.00  0.00  0.00  0.17  0.00
  YS02001649YS02001757    1.00   0.00  0.00  0.00  1.00  0.00  0.00  0.00  0.15  0.00
  YS02001767YS02001765    1.00   0.00  0.00  0.00  1.00  0.00  0.00  0.00  0.00  0.00
  YS02006561YS02001783    1.00   0.08  0.00  0.00  0.35  0.57  0.00  0.00  0.45  0.00
  YS02001783YS02001784    1.00   0.00  0.08  0.00  0.92  0.00  0.00  0.00  0.00  0.00
  YS02001784YS02001785    1.00   0.00  0.00  0.00  1.00  0.00  0.00  0.00  0.16  0.00
  YS02001788YS02001790    1.00   0.00  0.00  0.00  0.39  0.61  0.00  0.00  0.43  0.00
  YS02001790YS02001791    1.00   0.00  0.00  0.00  0.31  0.69  0.00  0.00  0.53  0.00
  YS02001791YS02001793    1.00   0.00  0.00  0.00  0.31  0.69  0.00  0.00  0.01  0.00
  YS02001910YS02001907    1.00   0.00  0.00  0.00  0.98  0.00  0.00  0.01  0.12  0.00
  YS02001786YS02001788    1.00   0.00  0.00  0.00  0.42  0.58  0.00  0.00  0.00  0.00
  YS02001915YS02001910    1.00   0.00  0.00  0.00  0.99  0.01  0.00  0.00  0.14  0.00
  YS02001918YS02001915    1.00   0.00  0.00  0.00  0.99  0.01  0.00  0.00  0.53  0.00
  YS02001923YS02001920    1.00   0.00  0.00  0.00  1.00  0.00  0.00  0.00  0.76  0.00
  YS02001926YS02001923    1.00   0.00  0.04  0.00  0.27  0.00  0.69  0.00  0.00  0.00
  YS02001929YS02001926    1.00   0.00  0.06  0.00  0.94  0.00  0.00  0.00  0.68  0.00
  YS02001920YS02001918    1.00   0.00  0.00  0.00  1.00  0.00  0.00  0.00  0.00  0.00
  YS02001629YS02163301    1.00   0.07  0.00  0.00  0.93  0.00  0.00  0.00  0.00  0.00
  YS02001619YS02001622    1.00   0.06  0.00  0.00  0.94  0.00  0.00  0.00  0.00  0.00
  YS02001622YS02001625    1.00   0.06  0.00  0.00  0.94  0.00  0.00  0.00  0.04  0.00
  YS02001625YS02001629    1.00   0.06  0.02  0.00  0.89  0.00  0.03  0.00  0.00  0.00
  YS02163301YS02001633    1.00   0.00  0.07  0.00  0.93  0.00  0.00  0.00  0.00  0.00
  YS02163601YS02164001    1.00   0.00  0.04  0.00  0.96  0.00  0.00  0.00  0.00  0.00
  YS02164001YS02001641    1.00   0.01  0.03  0.00  0.96  0.00  0.00  0.00  0.05  0.00
  YS02001641YS02001644    1.00   0.00  0.00  0.00  1.00  0.00  0.00  0.00  0.00  0.00
  YS02001647YS02001649    1.00   0.00  0.08  0.00  0.92  0.00  0.00  0.00  0.01  0.00
  YS02006553YS02006556    1.00   0.01  0.00  0.00  0.99  0.00  0.00  0.00  0.03  0.00
  YS02006556YS02006558    1.00   0.00  0.00  0.00  1.00  0.00  0.00  0.00  0.00  0.00
  YSB6556YSB1171          1.00   0.02  0.04  0.00  0.94  0.00  0.00  0.00  0.00  0.00
  YS02001907YS02006553    1.00   0.00  0.01  0.00  0.99  0.00  0.00  0.00  0.00  0.00
  YS02006558YS02006561    1.00   0.08  0.00  0.00  0.28  0.63  0.00  0.00  0.48  0.00
  YS02001633YS02163601    1.00   0.00  0.01  0.00  0.99  0.00  0.00  0.00  0.14  0.00
  YS02001644YS02001647    1.00   0.00  0.08  0.00  0.92  0.00  0.00  0.00  0.00  0.00
  YS02001745YS02001748    1.00   0.00  0.00  0.00  0.86  0.01  0.00  0.13  0.03  0.00
  YS02001748YS02001751    1.00   0.00  0.00  0.00  0.95  0.05  0.00  0.00  0.14  0.00
  YS02001751YS02001754    1.00   0.00  0.00  0.00  0.91  0.00  0.00  0.09  0.02  0.00
  YS02001754YS02001757    1.00   0.00  0.00  0.00  1.00  0.00  0.00  0.00  0.17  0.00
  YS02001882YS02001884    1.00   0.07  0.00  0.00  0.93  0.00  0.00  0.00  0.00  0.00
  YS02001884YS02001887    1.00   0.03  0.02  0.00  0.95  0.00  0.00  0.00  0.00  0.00
  YS02001890YS02001895    1.00   0.00  0.07  0.00  0.93  0.00  0.00  0.00  0.00  0.00
  YS02001895YS02001898    1.00   0.07  0.00  0.00  0.91  0.00  0.02  0.00  0.00  0.00
  YS02001898YS02001901    1.00   0.07  0.00  0.00  0.93  0.00  0.00  0.00  0.01  0.00
  YS02001901YS02001904    1.00   0.07  0.00  0.00  0.93  0.00  0.00  0.00  0.00  0.00
  YS02001904YS02001907    1.00   0.00  0.07  0.00  0.93  0.00  0.00  0.00  0.00  0.00
  YS02001887YS02001890    1.00   0.00  0.00  0.00  0.98  0.00  0.01  0.00  0.00  0.00
  YS02001652YS02001649    1.00   0.00  0.00  0.00  1.00  0.00  0.00  0.00  0.15  0.00
  YS02001655YS02001652    1.00   0.00  0.00  0.00  0.91  0.00  0.00  0.09  0.02  0.00
  YS02001658YS02001655    1.00   0.00  0.06  0.00  0.89  0.05  0.00  0.00  0.05  0.00
  YS02001661YS02001658    1.00   0.06  0.00  0.00  0.86  0.08  0.00  0.00  0.02  0.00
  YS02001664YS02001661    1.00   0.06  0.00  0.00  0.87  0.08  0.00  0.00  0.13  0.00
  YSB1154YSB6556          1.00   0.06  0.00  0.00  0.94  0.00  0.00  0.00  0.01  0.00
  YSB1174YSB1171          1.00   0.02  0.02  0.00  0.96  0.00  0.00  0.00  0.00  0.00
  YSB1171HS02004479       1.00   0.02  0.00  0.00  0.97  0.00  0.00  0.01  0.10  0.00
  HS02004881HS02006253    1.00   0.03  0.00  0.00  0.00  0.00  0.00  0.97  0.00  0.00
  YS02001793JiankangQianchi    1.00   0.00  0.00  0.00  0.37  0.63  0.00  0.00  0.07  0.00
  YS02001757CaochengTiaoxuchi    1.00   0.00  0.11  0.00  0.84  0.05  0.00  0.00  0.00  0.00
  WSF200WS02003060        1.00   0.00  0.13  0.00  0.09  0.78  0.00  0.00  0.59  0.00
  1                       1.00   0.00  0.00  0.00  0.00  1.00  0.00  0.00  0.30  0.00
  
  
  *************************
  Conduit Surcharge Summary
  *************************
  
  ----------------------------------------------------------------------------
                                                           Hours        Hours 
                         --------- Hours Full --------   Above Full   Capacity
  Conduit                Both Ends  Upstream  Dnstream   Normal Flow   Limited
  ----------------------------------------------------------------------------
  WS02006229WS02006228        0.38      0.42      0.38      1.05         0.38
  WS02006256WS02006235        0.01      0.01      6.58      6.53         0.01
  WS02006235WS02006234        0.01      0.01      0.01      0.38         0.01
  WS02006231WS02006230        0.01      0.01      0.01      0.58         0.01
  WS02006230WS02006229        0.63      0.63      0.65      0.68         0.01
  WS02006228WS02006109        0.40      0.52      0.40      1.53         0.40
  WS02006111WS02006112        0.01      0.01      1.30      0.01         0.01
  WS02006110WS02006113        0.01      0.01      0.46      0.01         0.01
  WS02006109WS02006110        0.01      0.01      0.52      0.01         0.01
  WS02004404WS02004405        0.01      0.01      0.01      2.11         0.01
  HS02004876HS02004881        0.01      0.01      0.01      0.33         0.01
  HS02004785HS02004788        0.01      0.01      0.01      0.24         0.01
  HS02004480HS02004478        0.01      0.01      0.01      0.98         0.01
  YS02001759YS02001757        6.21      6.21      6.25      0.01         0.01
  YS02001762YS02001759        6.19      6.19      6.21      0.01         0.01
  YS02001765YS02001762        6.18      6.18      6.19      0.01         0.01
  YS02001770YS02001767        6.17      6.17      6.17      0.95         0.35
  YS02001774YS02001770        6.16      6.16      6.19      0.01         0.01
  YS02001779YS02001774        6.08      6.08      6.19      0.01         0.01
  YS02001649YS02001757        6.20      6.20      6.25      0.01         0.01
  YS02001767YS02001765        6.17      6.17      6.18      0.01         0.01
  YS02006561YS02001783        1.46      1.46      1.98      0.01         0.01
  YS02001783YS02001784        1.97      1.98      1.98      1.93         1.80
  YS02001784YS02001785        1.90      1.98      1.90      2.70         1.90
  YS02001788YS02001790        1.75      1.75      1.83      0.01         0.01
  YS02001790YS02001791        1.83      1.83      1.85      1.41         1.21
  YS02001791YS02001793        1.85      1.85      1.97      0.01         0.01
  YS02001910YS02001907        1.82      1.82      2.19      0.01         0.01
  YS02001786YS02001788        1.75      1.90      1.75      2.31         1.75
  YS02001915YS02001910        1.63      1.63      1.82      0.01         0.01
  YS02001918YS02001915        1.38      1.38      1.63      0.01         0.01
  YS02001923YS02001920        1.19      1.19      1.41      0.01         0.01
  YS02001920YS02001918        1.38      1.38      1.41      0.01         0.01
  YS02001629YS02163301        6.15      6.15      6.16      0.01         0.01
  YS02001619YS02001622        5.99      5.99      5.99      0.01         0.01
  YS02001622YS02001625        5.99      5.99      6.14      0.01         0.01
  YS02001625YS02001629        5.99      5.99      6.14      0.01         0.01
  YS02163301YS02001633        6.16      6.16      6.18      0.01         0.01
  YS02163601YS02164001        6.18      6.18      6.19      0.01         0.01
  YS02164001YS02001641        6.18      6.18      6.18      0.01         0.01
  YS02001641YS02001644        6.18      6.18      6.18      2.08         1.95
  YS02001647YS02001649        6.13      6.13      6.20      0.01         0.01
  YS02006553YS02006556        2.00      2.00      2.26      0.01         0.01
  YS02006556YS02006558        2.09      2.09      2.33      0.01         0.01
  YS02001907YS02006553        2.74      2.74      2.92      0.01         0.01
  YS02006558YS02006561        1.65      1.97      1.65      2.56         1.65
  YS02001633YS02163601        6.17      6.17      6.19      0.01         0.01
  YS02001644YS02001647        6.13      6.13      6.18      0.01         0.01
  YS02001745YS02001748        0.01      0.01      5.90      0.01         0.01
  YS02001748YS02001751        5.93      5.93      5.98      0.01         0.01
  YS02001751YS02001754        5.98      5.98      6.09      0.01         0.01
  YS02001754YS02001757        6.13      6.13      6.25      0.01         0.01
  YS02001882YS02001884        1.64      1.64      1.67      0.01         0.01
  YS02001884YS02001887        1.72      1.72      1.75      0.01         0.01
  YS02001890YS02001895        1.61      1.61      1.84      0.01         0.01
  YS02001895YS02001898        1.59      1.59      1.61      0.01         0.01
  YS02001898YS02001901        1.62      1.62      1.72      0.01         0.01
  YS02001901YS02001904        1.70      1.70      1.72      0.01         0.01
  YS02001904YS02001907        1.70      1.70      2.27      0.01         0.01
  YS02001887YS02001890        1.78      1.78      1.80      0.01         0.01
  YS02001652YS02001649        6.14      6.14      6.20      0.01         0.01
  YS02001655YS02001652        5.99      5.99      6.13      0.01         0.01
  YS02001658YS02001655        5.93      5.93      5.99      0.01         0.01
  YS02001661YS02001658        0.08      0.08      5.93      0.01         0.01
  YS02001664YS02001661        0.01      0.01      1.05      0.01         0.01
  YS02001793JiankangQianchi        1.94      1.94      2.47      0.01         0.01
  YS02001757CaochengTiaoxuchi        5.70      5.70      6.25      0.01         0.01
  
  
  ***************
  Pumping Summary
  ***************
  
  ---------------------------------------------------------------------------------------------------------
                                                  Min       Avg       Max     Total     Power    % Time Off
                        Percent   Number of      Flow      Flow      Flow    Volume     Usage    Pump Curve
  Pump                 Utilized   Start-Ups       LPS       LPS       LPS  10^6 ltr     Kw-hr    Low   High
  ---------------------------------------------------------------------------------------------------------
  CC-Pump-1                0.00           0      0.00      0.00      0.00     0.000      0.00    0.0    0.0
  CC-Pump-2                0.00           0      0.00      0.00      0.00     0.000      0.00    0.0    0.0
  JK-Pump-1                0.00           0      0.00      0.00      0.00     0.000      0.00    0.0    0.0
  JK-Pump-2              100.00           1      0.00    397.56    683.00     9.682    132.90    0.0   98.2
  XR-Pump-1              100.00           1      0.00     95.00     95.00     2.736     22.53    0.0    0.0
  XR-Pump-2                0.00           0      0.00      0.00      0.00     0.000      0.00    0.0    0.0
  XR-Pump-3              100.00           1      0.00     95.00     95.00     2.736     22.53    0.0    0.0
  XR-Pump-4              100.00           1      0.00     95.00     95.00     2.736     22.53    0.0    0.0
  
  
  ***************************
  Link Pollutant Load Summary
  ***************************
  
  ------------------------------------------------------------------------------------------
                                 COD            SS            TN            TP         NH4-N
  Link                            kg            kg            kg            kg            kg
  ------------------------------------------------------------------------------------------
  WS02003066WSF200           358.679       686.139        10.694         1.018         5.790
  WS02006287WS02006284       371.258       712.682        11.404         1.100         6.215
  WS02006284WS02006280       371.772       713.506        11.453         1.106         6.246
  WS02006280WS02006229       371.749       713.468        11.450         1.106         6.244
  WS02006229WS02006228       348.767       665.208        10.892         1.056         5.955
  WS02006256WS02006235       314.882       600.277         6.214         0.451         3.047
  WS02006253WS02006251        63.468       126.875         1.341         0.097         0.656
  WS02006252WS02006251         0.000         0.000         0.000         0.000         0.000
  WS02006251WS02006249         6.967        14.048         0.143         0.010         0.069
  WS02006249WS02006248         6.927        13.969         0.141         0.010         0.068
  WS02006248WS02006247         6.936        13.990         0.141         0.010         0.068
  WS02006247WS02006245         6.926        13.973         0.141         0.010         0.068
  WS02006245WS02006243         6.889        13.903         0.140         0.010         0.068
  WS02006243WS02006242         6.920        13.970         0.140         0.010         0.068
  WS02006242WS02006240         6.903        13.940         0.139         0.010         0.067
  WS02006240WS02006239         6.858        13.858         0.138         0.010         0.066
  WS02006239WS02006238         6.749        13.654         0.135         0.009         0.065
  WS02006238WS02006235         6.845        13.847         0.137         0.010         0.066
  WS02006235WS02006234        50.620        99.506         1.092         0.087         0.546
  WS02006234WS02006232        51.124       100.485         1.104         0.088         0.552
  WS02006232WS02006231        51.854       101.909         1.121         0.089         0.561
  WS02006231WS02006230        52.244       102.669         1.130         0.090         0.565
  WS02006230WS02006229        54.239       106.545         1.178         0.094         0.590
  WS02006228WS02006109       347.975       663.943        10.815         1.046         5.907
  WS02006116WS02004401       366.409       698.335        11.444         1.112         6.259
  WS02006115WS02006116       367.132       699.467        11.523         1.122         6.309
  WS02006113WS02006111       354.905       675.059        11.476         1.129         6.320
  WS02006112WS02006115       367.756       700.458        11.582         1.129         6.346
  WS02006111WS02006112       354.620       674.630        11.442         1.124         6.299
  WS02006110WS02006113       355.035       675.260        11.490         1.131         6.329
  WS02006109WS02006110       355.798       676.460        11.566         1.140         6.376
  WS02004411WS02004412       360.417       688.781        10.874         1.041         5.903
  WS02004401WS02004402       365.508       696.894        11.361         1.102         6.207
  WS02004413WS02003067       359.219       687.046        10.737         1.024         5.817
  WS02004412WS02004413       359.722       687.686        10.804         1.032         5.859
  WS02004410WS02004411       360.883       689.525        10.920         1.047         5.932
  WS02004409WS02004410       361.207       690.019        10.956         1.051         5.954
  WS02004407WS02004409       361.513       690.523        10.984         1.055         5.972
  WS02004406WS02004407       361.667       690.798        10.995         1.056         5.979
  WS02004405WS02004406       363.341       693.448        11.155         1.076         6.078
  WS02004404WS02004405       364.257       694.918        11.246         1.087         6.135
  WS02004403WS02004404       363.741       694.076        11.194         1.081         6.103
  WS02004402WS02004403       364.561       695.379        11.271         1.090         6.151
  WS02004139WS02001211        77.059       131.243         5.810         0.706         3.573
  WS02004138WS02004139      1145.280      1914.472        90.835        11.052        55.890
  WS02003067WS02003066       358.668       686.101        10.697         1.019         5.792
  WS02001213WS02003059        34.373        63.659         1.570         0.174         0.918
  WS02001212WS02001213        32.191        60.079         1.383         0.151         0.802
  WS02001211WS02001212        32.255        59.788         1.464         0.162         0.855
  WS02003072WS02003073       445.030       815.161        20.794         2.304        12.169
  WS02003069WS02003072       446.093       816.686        20.924         2.321        12.252
  WS02003060WS02003069       444.380       813.947        20.760         2.300        12.149
  WS02003059WS02003060        38.862        72.379         1.698         0.186         0.986
  HS02004901HS02004770        15.688        30.641         0.297         0.022         0.140
  HS02004876HS02004881        53.858       107.602         1.166         0.085         0.571
  HS02004870HS02004876        40.830        81.442         0.928         0.069         0.458
  HS02004842HS02004848         7.780        15.053         0.161         0.011         0.074
  HS02004837HS02004842        12.400        22.390         0.630         0.070         0.369
  HS02004830HS02004837        76.061       134.144         4.828         0.571         2.929
  HS02004824HS02004830        76.842       135.404         4.901         0.580         2.975
  HS02004817HS02004824       107.631       197.867         5.527         0.620         3.279
  HS02004770HS02004777        59.818       118.335         1.228         0.084         0.568
  HS02004799HS02004480       193.507       373.305         4.894         0.427         2.512
  HS02004792HS02004799       175.976       337.406         4.612         0.412         2.385
  HS02004788HS02004792        97.318       186.960         2.977         0.279         1.591
  HS02004785HS02004788        61.278       120.668         1.379         0.103         0.664
  HS02004777HS02004785        60.589       119.558         1.316         0.095         0.625
  HS02004480HS02004478       242.925       471.614         5.732         0.487         2.909
  HS02004479HS02004480        53.015       104.078         1.153         0.100         0.593
  HS02004862HS02004870        30.902        60.786         0.732         0.057         0.364
  HS02004848HS02004852        12.660        24.765         0.258         0.018         0.119
  HS02004856HS02004862        21.098        42.090         0.421         0.028         0.198
  HS02004852HS02004856        12.669        24.779         0.258         0.018         0.119
  HS02004802HS02004478       129.170       242.418         5.735         0.620         3.345
  HS02004478WS02006287       371.439       712.972        11.421         1.102         6.226
  HS02004817HS02004807       106.345       195.809         5.401         0.604         3.200
  HS02004807HS02004802       129.396       242.774         5.769         0.625         3.366
  YS02001759YS02001757       321.789       601.165         6.345         0.444         3.099
  YS02001762YS02001759       233.971       439.029         4.714         0.333         2.314
  YS02001765YS02001762       235.825       443.599         4.765         0.337         2.342
  YS02001770YS02001767       241.235       456.869         4.737         0.325         2.305
  YS02001774YS02001770       420.003       812.080         8.122         0.545         3.930
  YS02001779YS02001774       419.584       811.301         8.197         0.557         3.982
  YS02001649YS02001757       511.871       943.790        10.335         0.704         4.998
  YS02001767YS02001765       238.452       449.683         4.825         0.342         2.372
  YS02006561YS02001783      1168.036      2188.430        24.206         1.797        12.008
  YS02001783YS02001784      1168.024      2188.455        24.203         1.797        12.007
  YS02001784YS02001785      1175.608      2200.666        24.933         1.888        12.463
  YS02001788YS02001790      1176.375      2201.993        25.009         1.898        12.511
  YS02001790YS02001791      1177.551      2204.025        25.112         1.910        12.575
  YS02001791YS02001793      1177.526      2204.001        25.108         1.910        12.573
  YS02001910YS02001907       472.304       880.828        10.970         0.823         5.577
  YS02001786YS02001788      1175.938      2201.286        24.963         1.892        12.482
  YS02001915YS02001910       472.255       880.708        10.924         0.817         5.546
  YS02001918YS02001915       228.482       408.170         5.947         0.526         3.163
  YS02001923YS02001920       205.224       369.710         3.912         0.275         1.899
  YS02001926YS02001923       203.571       366.889         3.826         0.266         1.848
  YS02001929YS02001926       203.115       366.122         3.786         0.261         1.823
  YS02001920YS02001918       225.976       403.078         5.872         0.520         3.122
  YS02001629YS02163301        90.422       160.010         1.920         0.124         0.897
  YS02001619YS02001622       214.029       395.394         4.354         0.287         2.039
  YS02001622YS02001625       212.933       393.676         4.327         0.285         2.027
  YS02001625YS02001629        90.989       160.957         1.934         0.125         0.903
  YS02163301YS02001633        91.144       161.276         1.931         0.125         0.903
  YS02163601YS02164001       469.607       857.565         9.078         0.651         4.355
  YS02164001YS02001641       469.290       857.038         9.061         0.649         4.345
  YS02001641YS02001644       469.881       857.992         9.066         0.649         4.347
  YS02001647YS02001649       647.412      1195.625        13.085         0.901         6.282
  YS02006553YS02006556       765.866      1421.887        16.272         1.238         8.162
  YS02006556YS02006558       766.189      1422.487        16.245         1.233         8.143
  YSB6556YSB1171              30.757        60.587         0.612         0.050         0.307
  YS02001907YS02006553       765.703      1421.601        16.285         1.240         8.171
  YS02006558YS02006561      1167.963      2188.275        24.204         1.797        12.007
  YS02001633YS02163601       470.221       858.497         9.055         0.646         4.337
  YS02001644YS02001647       653.321      1207.215        13.177         0.908         6.325
  YS02001745YS02001748       294.558       559.075         5.833         0.362         2.799
  YS02001748YS02001751       293.849       557.869         5.841         0.364         2.807
  YS02001751YS02001754       292.935       556.377         5.825         0.364         2.801
  YS02001754YS02001757       293.797       557.701         5.993         0.387         2.910
  YS02001882YS02001884         3.259         5.703         0.064         0.005         0.032
  YS02001884YS02001887         7.226        12.949         0.139         0.011         0.069
  YS02001890YS02001895       547.662      1039.664        10.074         0.759         4.913
  YS02001895YS02001898       547.649      1039.736        10.071         0.759         4.911
  YS02001898YS02001901       547.560      1039.574        10.068         0.759         4.910
  YS02001901YS02001904       547.586      1039.684        10.078         0.760         4.917
  YS02001904YS02001907       548.018      1040.388        10.136         0.768         4.953
  YS02001887YS02001890       561.198      1066.123        10.353         0.783         5.055
  YS02001652YS02001649       269.746       503.089         5.427         0.390         2.543
  YS02001655YS02001652       270.656       504.515         5.451         0.392         2.555
  YS02001658YS02001655       270.513       504.268         5.372         0.381         2.502
  YS02001661YS02001658       271.455       505.800         5.394         0.382         2.512
  YS02001664YS02001661       271.501       505.637         5.400         0.382         2.514
  YSB1154YSB6556              30.341        59.927         0.564         0.044         0.277
  YSB1174YSB1171              20.752        41.083         0.409         0.033         0.203
  YSB1171HS02004479           52.960       103.986         1.157         0.100         0.595
  HS02004881HS02006253        60.468       121.030         1.291         0.093         0.631
  YS02001793JiankangQianchi      1177.676      2204.305        25.109         1.910        12.573
  YS02001757CaochengTiaoxuchi       456.731       864.666         8.627         0.592         4.133
  WSF200WS02003060           358.509       685.822        10.685         1.017         5.785
  1                          456.869       833.694        21.995         2.455        12.923
  CC-Pump-1                    0.000         0.000         0.000         0.000         0.000
  CC-Pump-2                    0.000         0.000         0.000         0.000         0.000
  JK-Pump-1                    0.000         0.000         0.000         0.000         0.000
  JK-Pump-2                  779.920      1485.351        15.417         1.119         7.562
  XR-Pump-1                  382.157       638.810        30.312         3.688        18.651
  XR-Pump-2                    0.000         0.000         0.000         0.000         0.000
  XR-Pump-3                  382.157       638.810        30.312         3.688        18.651
  XR-Pump-4                  382.157       638.810        30.312         3.688        18.651
  3                           57.096       113.801         1.252         0.094         0.620
  5                          343.812       660.872         6.851         0.504         3.366
  6                         1224.138      2048.601        96.817        11.780        59.570
  

  Analysis begun on:  Thu Jul  8 15:18:24 2021
  Analysis ended on:  Thu Jul  8 15:18:25 2021
  Total elapsed time: 00:00:01