
  EPA STORM WATER MANAGEMENT MODEL - VERSION 5.1 (Build 5.3.0.dev0)
  --------------------------------------------------------------

  WARNING 04: minimum elevation drop used for Conduit WS02004404WS02004405
  WARNING 03: negative offset ignored for Link YS02001904YS02001907
  
  *********************************************************
  NOTE: The summary statistics displayed in this report are
  based on results found at every computational time step,  
  not just on results from each reporting time step.
  *********************************************************
  
  ****************
  Analysis Options
  ****************
  Flow Units ............... LPS
  Process Models:
    Rainfall/Runoff ........ YES
    RDII ................... NO
    Snowmelt ............... NO
    Groundwater ............ NO
    Flow Routing ........... YES
    Ponding Allowed ........ NO
    Water Quality .......... YES
  Infiltration Method ...... HORTON
  Flow Routing Method ...... DYNWAVE
  Surcharge Method ......... EXTRAN
  Starting Date ............ 08/28/2015 08:00:00
  Ending Date .............. 08/28/2015 16:00:00
  Antecedent Dry Days ...... 8.0
  Report Time Step ......... 00:01:00
  Wet Time Step ............ 00:01:00
  Dry Time Step ............ 00:01:00
  Routing Time Step ........ 5.00 sec
  Variable Time Step ....... YES
  Maximum Trials ........... 8
  Number of Threads ........ 4
  Head Tolerance ........... 0.001500 m
  
  
  **************************        Volume         Depth
  Runoff Quantity Continuity     hectare-m            mm
  **************************     ---------       -------
  Total Precipitation ......         8.152        17.848
  Evaporation Loss .........         0.000         0.000
  Infiltration Loss ........         1.241         2.717
  Surface Runoff ...........         5.883        12.881
  Final Storage ............         1.029         2.253
  Continuity Error (%) .....        -0.016
  
  
  **************************           COD            SS            TN            TP         NH4-N
  Runoff Quality Continuity             kg            kg            kg            kg            kg
  **************************    ----------    ----------    ----------    ----------    ----------
  Initial Buildup ..........     41378.656     70582.865      1804.177       168.684      1032.807
  Surface Buildup ..........        33.820        71.828         2.541         0.228         1.448
  Wet Deposition ...........         0.000         0.000         0.000         0.000         0.000
  Sweeping Removal .........         0.000         0.000         0.000         0.000         0.000
  Infiltration Loss ........       137.453       267.385         2.641         0.189         1.266
  BMP Removal ..............         0.000         0.000         0.000         0.000         0.000
  Surface Runoff ...........      6204.908     11994.745       119.633         8.324        57.127
  Remaining Buildup ........     35067.569     58387.548      1684.393       160.395       975.838
  Continuity Error (%) .....         0.006         0.007         0.003         0.002         0.002
  
  
  **************************        Volume        Volume
  Flow Routing Continuity        hectare-m      10^6 ltr
  **************************     ---------     ---------
  Dry Weather Inflow .......         0.630         6.296
  Wet Weather Inflow .......         5.882        58.817
  Groundwater Inflow .......         0.000         0.000
  RDII Inflow ..............         0.000         0.000
  External Inflow ..........         0.105         1.045
  External Outflow .........         2.327        23.268
  Flooding Loss ............         3.765        37.649
  Evaporation Loss .........         0.000         0.000
  Exfiltration Loss ........         0.000         0.000
  Initial Stored Volume ....         0.076         0.761
  Final Stored Volume ......         0.603         6.025
  Continuity Error (%) .....        -0.034
  
  
  **************************           COD            SS            TN            TP         NH4-N
  Quality Routing Continuity            kg            kg            kg            kg            kg
  **************************    ----------    ----------    ----------    ----------    ----------
  Dry Weather Inflow .......      1573.993      2518.389       151.103        18.888        94.440
  Wet Weather Inflow .......      6204.024     11993.220       119.613         8.323        57.118
  Groundwater Inflow .......         0.000         0.000         0.000         0.000         0.000
  RDII Inflow ..............         0.000         0.000         0.000         0.000         0.000
  External Inflow ..........       187.321       299.713        17.983         2.248        11.239
  External Outflow .........      2684.476      4862.040       134.326        15.052        79.263
  Flooding Loss ............      4494.016      8580.121       124.164        11.356        66.456
  Exfiltration Loss ........         0.000         0.000         0.000         0.000         0.000
  Mass Reacted .............         0.000         0.000         0.000         0.000         0.000
  Initial Stored Mass ......         0.000         0.000         0.000         0.000         0.000
  Final Stored Mass ........       546.011       966.995        22.914         2.403        13.167
  Continuity Error (%) .....         3.024         2.715         2.527         2.196         2.402
  
  
  *************************
  Highest Continuity Errors
  *************************
  Node HS02004842 (10.39%)
  Node YS02001884 (9.31%)
  Node WS02003059 (5.07%)
  Node HS02004817 (2.00%)
  Node YSB1171 (1.84%)
  
  
  ***************************
  Time-Step Critical Elements
  ***************************
  Link WS02006252WS02006251 (94.66%)
  Link WS02006280WS02006229 (1.46%)
  
  
  ********************************
  Highest Flow Instability Indexes
  ********************************
  Link YS02163601YS02164001 (27)
  Link YS02163301YS02001633 (27)
  Link YS02001629YS02163301 (26)
  Link YS02001619YS02001622 (26)
  Link YS02164001YS02001641 (25)
  
  
  *************************
  Routing Time Step Summary
  *************************
  Minimum Time Step           :     0.11 sec
  Average Time Step           :     0.82 sec
  Maximum Time Step           :     5.00 sec
  Percent in Steady State     :    -0.00
  Average Iterations per Step :     3.69
  Percent Not Converging      :    11.61
  
  
  ***************************
  Subcatchment Runoff Summary
  ***************************
  
  ------------------------------------------------------------------------------------------------------------------------------
                            Total      Total      Total      Total     Imperv       Perv      Total       Total     Peak  Runoff
                           Precip      Runon       Evap      Infil     Runoff     Runoff     Runoff      Runoff   Runoff   Coeff
  Subcatchment                 mm         mm         mm         mm         mm         mm         mm    10^6 ltr      LPS
  ------------------------------------------------------------------------------------------------------------------------------
  sub0                      17.85       0.00       0.00       0.67      16.55       0.58      17.13        0.01     3.81   0.960
  sub1                      17.85       0.00       0.00       1.18      15.79       0.79      16.58        0.11    27.37   0.929
  sub2                      17.85       0.00       0.00       5.01      11.16       1.59      12.75        0.12    27.59   0.715
  sub3                      17.85       0.00       0.00       5.26      11.12       1.35      12.47        0.28    61.86   0.699
  sub4                      17.85       0.00       0.00       1.31      15.63       0.65      16.28        0.34    72.98   0.912
  sub5                      17.85       0.00       0.00       0.72      16.50       0.53      17.04        0.19    47.67   0.955
  sub7                      17.85       0.00       0.00       0.91      16.18       0.70      16.88        0.06    14.88   0.946
  sub8                      17.85       0.00       0.00       0.92      16.17       0.69      16.86        0.11    27.61   0.945
  sub9                      17.85       0.00       0.00       0.92      16.17       0.69      16.85        0.08    20.69   0.944
  sub10                     17.85       0.00       0.00       0.82      16.33       0.61      16.94        0.19    46.71   0.949
  sub11                     17.85       0.00       0.00       0.81      16.35       0.62      16.97        0.20    50.80   0.951
  sub12                     17.85       0.00       0.00       1.31      15.48       1.01      16.49        0.14    39.23   0.924
  sub14                     17.85       0.00       0.00       0.92      16.17       0.68      16.85        0.16    40.81   0.944
  sub15                     17.85       0.00       0.00       3.65      12.43       1.71      14.14        0.24    60.75   0.792
  sub16                     17.85       0.00       0.00       3.79      11.92       2.10      14.02        0.15    39.10   0.785
  sub17                     17.85       0.00       0.00       3.70      12.09       2.02      14.11        0.12    31.99   0.791
  sub22                     17.85       0.00       0.00       5.47      10.13       2.20      12.34        0.78   194.91   0.691
  sub23                     17.85       0.00       0.00       4.51      11.20       2.10      13.30        0.63   162.21   0.745
  sub60                     17.85       0.00       0.00       1.83      13.68       0.31      13.99        4.24   569.59   0.784
  sub61                     17.85       0.00       0.00       2.59      13.61       0.44      14.05        4.33   659.40   0.787
  sub62                     17.85       0.00       0.00       1.12      14.89       0.31      15.20        4.67   684.34   0.852
  sub63                     17.85       0.00       0.00       4.65      11.83       0.52      12.35        3.74   596.69   0.692
  sub64                     17.85       0.00       0.00       2.36      13.15       0.32      13.47        4.10   545.52   0.755
  sub65                     17.85       0.00       0.00       2.01      13.39       0.31      13.70        4.21   555.85   0.768
  sub66                     17.85       0.00       0.00       4.81      11.20       0.36      11.56        3.55   490.57   0.648
  sub67                     17.85       0.00       0.00       1.06      15.45       0.37      15.82        4.88   805.18   0.887
  sub68                     17.85       0.00       0.00       2.05      14.25       0.44      14.69        4.52   710.45   0.823
  sub69                     17.85       0.00       0.00       2.10      14.55       0.58      15.13        3.54   634.05   0.848
  sub70                     17.85      15.45       0.00       8.88      20.37       2.44      22.81        5.22   722.50   0.685
  sub71                     17.85       0.00       0.00       1.14      14.61       0.29      14.90        3.52   492.54   0.835
  sub72                     17.85       0.00       0.00       1.08      12.35       0.17      12.52        2.55   269.79   0.701
  1                         17.85      22.21       0.00       1.40      24.09       7.83      31.92        7.50   745.49   0.797
  2                         17.85       0.00       0.00       3.09       4.32       3.45       7.76        3.11   393.62   0.435
  
  
  ****************************
  Subcatchment Washoff Summary
  ****************************
  
  ------------------------------------------------------------------------------------------
                                 COD            SS            TN            TP         NH4-N
  Subcatchment                    kg            kg            kg            kg            kg
  ------------------------------------------------------------------------------------------
  sub0                         3.926         7.712         0.070         0.006         0.034
  sub1                        17.076        34.688         0.324         0.023         0.156
  sub2                        11.385        22.732         0.237         0.016         0.109
  sub3                        27.996        55.509         0.571         0.039         0.266
  sub4                        39.740        82.076         0.785         0.049         0.378
  sub5                        38.865        77.656         0.710         0.055         0.346
  sub7                         8.556        17.584         0.164         0.011         0.079
  sub8                        12.750        26.861         0.255         0.015         0.123
  sub9                        10.975        22.785         0.214         0.014         0.103
  sub10                       31.883        64.555         0.596         0.043         0.289
  sub11                       30.776        62.970         0.585         0.041         0.283
  sub12                       26.574        53.312         0.492         0.038         0.239
  sub14                       23.557        48.425         0.451         0.031         0.219
  sub15                       32.754        65.148         0.633         0.047         0.300
  sub16                       21.302        42.277         0.408         0.031         0.193
  sub17                       19.567        38.477         0.367         0.029         0.174
  sub22                      106.682       209.084         2.029         0.155         0.956
  sub23                       60.157       121.776         1.261         0.085         0.584
  sub60                      395.412       767.368         7.784         0.491         3.742
  sub61                      492.038       950.291         9.165         0.642         4.427
  sub62                      501.521       983.644         9.738         0.633         4.691
  sub63                      367.776       700.637         7.268         0.520         3.400
  sub64                      506.410       949.063         9.322         0.690         4.471
  sub65                      516.823       972.216         9.569         0.696         4.596
  sub66                      290.926       550.335         5.856         0.391         2.753
  sub67                      744.359      1443.175        13.521         1.012         6.561
  sub68                      535.415      1043.042        10.218         0.705         4.905
  sub69                      477.969       938.754         8.998         0.645         4.325
  sub70                      849.097      1668.802        17.053         1.212         8.069
  sub71                      329.845       653.213         6.686         0.398         3.209
  sub72                      278.362       513.895         5.174         0.361         2.495
  1                          648.654      1281.437        13.202         0.938         6.192
  2                           72.845       132.802         1.979         0.121         0.851
  ------------------------------------------------------------------------------------------
  System                    7531.974     14602.301       145.683        10.181        69.521
  
  
  ******************
  Node Depth Summary
  ******************
  
  ---------------------------------------------------------------------------------
                                 Average  Maximum  Maximum  Time of Max    Reported
                                   Depth    Depth      HGL   Occurrence   Max Depth
  Node                 Type       Meters   Meters   Meters  days hr:min      Meters
  ---------------------------------------------------------------------------------
  WS02001211           JUNCTION     0.28     0.36     5.19     0  02:42        0.36
  WS02001212           JUNCTION     0.06     0.17     5.24     0  02:41        0.17
  WS02001213           JUNCTION     0.35     0.53     5.29     0  02:40        0.53
  WS02003069           JUNCTION     0.20     0.41     4.99     0  02:41        0.41
  WS02003072           JUNCTION     0.26     0.48     4.85     0  02:42        0.48
  WS02003073           JUNCTION     0.14     0.28     4.35     0  02:43        0.28
  WS02003060           JUNCTION     0.18     0.36     5.30     0  02:40        0.36
  WS02003066           JUNCTION     0.16     0.30     5.86     0  02:39        0.30
  WS02003059           JUNCTION     0.43     0.61     5.30     0  02:40        0.61
  WS02003067           JUNCTION     0.44     0.71     6.03     0  02:39        0.71
  WS02004401           JUNCTION     0.50     0.88     6.88     0  02:36        0.88
  WS02004402           JUNCTION     0.54     0.90     6.86     0  02:36        0.90
  WS02004403           JUNCTION     0.56     0.92     6.85     0  02:36        0.92
  WS02004404           JUNCTION     0.64     0.99     6.84     0  02:36        0.99
  WS02004406           JUNCTION     0.65     0.97     6.80     0  02:36        0.97
  WS02004409           JUNCTION     0.30     0.69     6.46     0  02:38        0.69
  WS02004410           JUNCTION     0.33     0.70     6.42     0  02:38        0.70
  WS02004411           JUNCTION     0.36     0.71     6.39     0  02:39        0.71
  WS02004412           JUNCTION     0.38     0.72     6.36     0  02:39        0.72
  WS02004413           JUNCTION     0.54     0.87     6.34     0  02:39        0.87
  WS02004405           JUNCTION     0.64     0.98     6.83     0  02:36        0.98
  WS02006109           JUNCTION     0.54     0.98     7.60     0  02:34        0.98
  WS02006110           JUNCTION     0.56     0.93     7.51     0  02:34        0.93
  WS02006111           JUNCTION     0.14     0.29     7.00     0  02:35        0.29
  WS02006112           JUNCTION     0.64     1.13     7.01     0  02:37        1.09
  WS02006113           JUNCTION     0.20     0.46     7.35     0  02:34        0.46
  WS02006115           JUNCTION     0.38     0.78     6.92     0  02:36        0.78
  WS02006116           JUNCTION     0.47     0.86     6.90     0  02:36        0.86
  WS02006230           JUNCTION     0.43     0.94     7.68     0  02:33        0.94
  WS02006231           JUNCTION     0.21     0.53     7.65     0  02:34        0.53
  WS02006232           JUNCTION     0.30     0.59     7.63     0  02:34        0.59
  WS02006234           JUNCTION     0.17     0.41     7.57     0  02:34        0.41
  WS02006235           JUNCTION     0.18     0.31     7.47     0  02:36        0.31
  WS02006238           JUNCTION     0.21     0.33     7.47     0  02:36        0.33
  WS02006240           JUNCTION     0.15     0.22     7.51     0  02:37        0.22
  WS02006242           JUNCTION     0.21     0.28     7.55     0  02:37        0.28
  WS02006243           JUNCTION     0.12     0.17     7.59     0  02:35        0.17
  WS02006245           JUNCTION     0.14     0.20     7.68     0  02:35        0.20
  WS02006247           JUNCTION     0.17     0.22     7.72     0  02:34        0.22
  WS02006248           JUNCTION     0.12     0.18     7.76     0  02:34        0.18
  WS02006249           JUNCTION     0.17     0.22     7.82     0  02:33        0.22
  WS02006239           JUNCTION     0.17     0.28     7.48     0  02:36        0.28
  WS02006251           JUNCTION     0.14     0.20     7.87     0  02:33        0.20
  WS02006252           JUNCTION     0.33     0.35     8.59     0  01:42        0.35
  WS02006253           JUNCTION     0.19     0.37     8.02     0  02:32        0.37
  WS02006256           JUNCTION     1.93     2.35     9.28     0  00:00        2.35
  WS02004138           JUNCTION     0.17     0.17     7.42     0  00:00        0.17
  WS02004139           JUNCTION     0.20     0.23     5.14     0  02:43        0.23
  WS02004407           JUNCTION     0.14     0.31     6.62     0  02:37        0.31
  WS02006228           JUNCTION     0.52     1.02     7.67     0  02:33        1.02
  WS02006229           JUNCTION     0.48     1.02     7.71     0  02:34        1.02
  WS02006280           JUNCTION     0.09     0.27     8.55     0  02:33        0.27
  WS02006284           JUNCTION     0.40     0.67     9.07     0  02:33        0.67
  WS02006287           JUNCTION     0.13     0.42     9.37     0  02:32        0.42
  WSF200               JUNCTION     0.13     0.30     5.53     0  02:39        0.30
  HS02004901           JUNCTION     0.15     0.39    10.22     0  02:31        0.39
  HS02004881           JUNCTION     0.01     0.06     9.08     0  02:32        0.06
  HS02004876           JUNCTION     0.05     0.17     9.20     0  02:32        0.17
  HS02004870           JUNCTION     0.02     0.10     9.39     0  02:33        0.10
  HS02004862           JUNCTION     0.03     0.12     9.50     0  02:33        0.12
  HS02004856           JUNCTION     0.09     0.16     9.58     0  02:33        0.16
  HS02004852           JUNCTION     0.02     0.08     9.59     0  02:33        0.08
  HS02004848           JUNCTION     0.02     0.07     9.67     0  02:33        0.07
  HS02004842           JUNCTION     0.34     0.41     9.68     0  02:33        0.41
  HS02004837           JUNCTION     0.04     0.09     9.67     0  02:33        0.09
  HS02004830           JUNCTION     0.05     0.12     9.59     0  02:34        0.12
  HS02004824           JUNCTION     0.03     0.16     9.56     0  02:33        0.16
  HS02004817           JUNCTION     0.47     0.72     9.57     0  02:33        0.72
  HS02004807           JUNCTION     0.15     0.39     9.56     0  02:33        0.39
  HS02004802           JUNCTION     0.19     0.42     9.55     0  02:34        0.42
  HS02004799           JUNCTION     0.16     0.49     9.71     0  02:32        0.49
  HS02004792           JUNCTION     0.05     0.23     9.76     0  02:32        0.23
  HS02004788           JUNCTION     0.04     0.17    10.07     0  02:32        0.17
  HS02004785           JUNCTION     0.07     0.26    10.16     0  02:32        0.26
  HS02004777           JUNCTION     0.17     0.41    10.20     0  02:32        0.41
  HS02004770           JUNCTION     0.14     0.38    10.22     0  02:32        0.38
  HS02004480           JUNCTION     0.11     0.41     9.65     0  02:32        0.40
  HS02004479           JUNCTION     0.15     0.44     9.65     0  02:32        0.44
  HS02004478           JUNCTION     0.09     0.30     9.53     0  02:32        0.30
  YS02001745           JUNCTION     0.77     1.01     8.53     0  03:01        1.01
  YS02001748           JUNCTION     1.17     2.19     9.27     0  02:15        1.44
  YS02001751           JUNCTION     1.36     2.09     8.97     0  02:15        1.67
  YS02001754           JUNCTION     1.61     2.04     8.65     0  02:15        1.87
  YS02001762           JUNCTION     1.82     2.06     8.46     0  03:00        2.06
  YS02001765           JUNCTION     1.77     2.01     8.46     0  03:01        2.01
  YS02001767           JUNCTION     1.73     1.96     8.45     0  03:01        1.96
  YS02001770           JUNCTION     1.72     1.95     8.44     0  02:47        1.95
  YS02001774           JUNCTION     1.79     1.99     8.41     0  02:47        1.99
  YS02001779           JUNCTION     1.53     1.68     8.37     0  02:15        1.68
  YS02001882           JUNCTION     0.72     1.64     8.36     0  02:34        1.64
  YS02001884           JUNCTION     0.82     1.74     8.36     0  02:37        1.74
  YS02001759           JUNCTION     1.85     2.10     8.47     0  03:00        2.10
  YS02001887           JUNCTION     0.89     1.82     8.36     0  02:37        1.82
  YS02001890           JUNCTION     0.92     1.81     8.32     0  02:21        1.81
  YS02001898           JUNCTION     0.68     1.56     8.30     0  02:21        1.55
  YS02001901           JUNCTION     0.80     1.68     8.29     0  02:25        1.67
  YS02001904           JUNCTION     0.78     1.64     8.27     0  02:22        1.63
  YS02001907           JUNCTION     1.11     1.96     8.25     0  02:21        1.96
  YS02001910           JUNCTION     0.90     1.80     8.31     0  02:23        1.79
  YS02001915           JUNCTION     0.70     1.62     8.34     0  02:22        1.60
  YS02001918           JUNCTION     0.43     1.32     8.39     0  02:23        1.31
  YS02001619           JUNCTION     1.31     1.52     8.44     0  02:14        1.49
  YS02001629           JUNCTION     1.67     1.85     8.40     0  02:13        1.84
  YS02001641           JUNCTION     1.77     1.94     8.37     0  02:29        1.93
  YS02001644           JUNCTION     1.77     1.92     8.35     0  02:15        1.92
  YS02001652           JUNCTION     1.62     2.13     8.73     0  02:22        1.92
  YS02001655           JUNCTION     1.38     2.19     9.04     0  02:22        1.76
  YS02001920           JUNCTION     0.53     1.41     8.42     0  02:23        1.40
  YS02001923           JUNCTION     0.35     1.18     8.44     0  02:23        1.17
  YS02001926           JUNCTION     0.38     1.12     8.56     0  02:23        1.10
  YS02001929           JUNCTION     0.24     0.79     8.49     0  02:22        0.77
  YS02001658           JUNCTION     1.11     2.24     9.38     0  02:22        1.53
  YS02001661           JUNCTION     0.87     2.33     9.73     0  02:22        1.20
  YS02001664           JUNCTION     0.40     0.57     8.49     0  02:47        0.57
  YS02001622           JUNCTION     1.33     1.52     8.43     0  02:14        1.50
  YS02001633           JUNCTION     1.76     1.96     8.41     0  02:17        1.94
  YS02001649           JUNCTION     1.82     2.05     8.44     0  02:22        2.05
  YS02001757           JUNCTION     1.95     2.20     8.46     0  03:01        2.20
  YS02001895           JUNCTION     0.68     1.57     8.31     0  02:32        1.56
  YS02001625           JUNCTION     1.62     1.78     8.38     0  02:13        1.78
  YS02163301           JUNCTION     1.70     1.90     8.42     0  02:14        1.88
  YS02163601           JUNCTION     1.81     2.00     8.40     0  02:17        1.98
  YS02164001           JUNCTION     1.75     1.92     8.38     0  02:17        1.91
  YS02001647           JUNCTION     1.60     1.81     8.42     0  02:22        1.79
  YSB1154              JUNCTION     0.29     0.59     9.65     0  02:32        0.59
  YSB6556              JUNCTION     0.18     0.48     9.65     0  02:32        0.48
  YSB1174              JUNCTION     0.24     0.54     9.65     0  02:32        0.54
  YSB1171              JUNCTION     0.44     0.75     9.65     0  02:32        0.75
  YS02006553           JUNCTION     1.11     2.12     8.40     0  02:28        1.97
  YS02006561           JUNCTION     0.43     1.59     8.25     0  02:28        1.09
  YS02006556           JUNCTION     1.08     2.26     8.57     0  02:28        1.94
  YS02006558           JUNCTION     1.12     2.37     8.64     0  02:28        1.99
  YS02001783           JUNCTION     0.67     2.08     8.22     0  02:28        1.48
  YS02001784           JUNCTION     0.67     2.13     8.19     0  02:28        1.42
  YS02001786           JUNCTION     0.59     2.04     8.07     0  02:28        1.27
  YS02001788           JUNCTION     0.49     2.28     8.26     0  02:28        1.13
  YS02001790           JUNCTION     0.59     1.96     7.60     0  02:28        1.29
  YS02001791           JUNCTION     0.52     1.68     7.15     0  02:28        1.27
  YS02001793           JUNCTION     0.65     1.80     6.64     0  02:31        1.80
  WSC                  OUTFALL      0.14     0.28     0.95     0  02:43        0.28
  3                    OUTFALL      0.00     0.00     7.16     0  00:00        0.00
  4                    OUTFALL      0.00     0.00     7.67     0  00:00        0.00
  5                    OUTFALL      0.00     0.00     4.91     0  00:00        0.00
  JK-storage           STORAGE      2.11     5.80     6.60     0  02:29        5.80
  CC-storage           STORAGE      1.17     1.46     8.46     0  03:04        1.46
  XR-storage           STORAGE      6.97     7.72     5.72     0  02:28        7.72
  
  
  *******************
  Node Inflow Summary
  *******************
  
  -------------------------------------------------------------------------------------------------
                                  Maximum  Maximum                  Lateral       Total        Flow
                                  Lateral    Total  Time of Max      Inflow      Inflow     Balance
                                   Inflow   Inflow   Occurrence      Volume      Volume       Error
  Node                 Type           LPS      LPS  days hr:min    10^6 ltr    10^6 ltr     Percent
  -------------------------------------------------------------------------------------------------
  WS02001211           JUNCTION      7.35    93.29     0  02:41       0.212       0.508       1.574
  WS02001212           JUNCTION      0.00    86.06     0  02:40           0       0.305       0.336
  WS02001213           JUNCTION      0.00    86.42     0  02:39           0       0.312       2.797
  WS02003069           JUNCTION      0.32   500.01     0  02:40     0.00922        3.67       0.142
  WS02003072           JUNCTION      0.00   499.97     0  02:41           0        3.67       0.233
  WS02003073           JUNCTION      1.82   501.78     0  02:42      0.0524        3.71       0.198
  WS02003060           JUNCTION     16.53   586.46     0  02:40       0.476        3.99       0.123
  WS02003066           JUNCTION      0.00   569.83     0  02:39           0         3.5       0.047
  WS02003059           JUNCTION      0.00    87.68     0  02:38           0       0.335       5.336
  WS02003067           JUNCTION      0.00   569.79     0  02:39           0         3.5       0.131
  WS02004401           JUNCTION      0.00   573.55     0  02:35           0        3.62       0.311
  WS02004402           JUNCTION      0.00   572.63     0  02:36           0         3.6       0.314
  WS02004403           JUNCTION      0.00   573.06     0  02:36           0        3.59       0.302
  WS02004404           JUNCTION      0.16   572.55     0  02:36     0.00467        3.59       0.246
  WS02004406           JUNCTION      0.00   572.62     0  02:36           0        3.57       0.610
  WS02004409           JUNCTION      0.00   571.95     0  02:37           0        3.54       0.106
  WS02004410           JUNCTION      0.00   570.81     0  02:38           0        3.54       0.157
  WS02004411           JUNCTION      0.00   570.34     0  02:38           0        3.53       0.190
  WS02004412           JUNCTION      0.00   569.93     0  02:38           0        3.53       0.244
  WS02004413           JUNCTION      0.00   569.93     0  02:39           0        3.52       0.428
  WS02004405           JUNCTION      0.04   572.03     0  02:36      0.0011        3.58       0.380
  WS02006109           JUNCTION      1.23   544.01     0  02:34      0.0354        3.55       0.317
  WS02006110           JUNCTION      0.00   543.99     0  02:34           0        3.54       0.280
  WS02006111           JUNCTION      0.00   565.45     0  02:35           0        3.53       0.023
  WS02006112           JUNCTION     31.99   580.38     0  02:34       0.121        3.65       0.415
  WS02006113           JUNCTION      0.00   544.27     0  02:34           0        3.53       0.070
  WS02006115           JUNCTION      0.00   591.72     0  02:33           0        3.63       0.259
  WS02006116           JUNCTION      0.00   575.86     0  02:35           0        3.62       0.190
  WS02006230           JUNCTION     10.28   242.53     0  02:32       0.296        1.24       0.383
  WS02006231           JUNCTION      0.00   242.07     0  02:33           0        0.99       0.050
  WS02006232           JUNCTION      0.00   241.66     0  02:34           0       0.992       0.444
  WS02006234           JUNCTION      0.00   241.52     0  02:34           0       0.991       0.012
  WS02006235           JUNCTION      0.00   567.39     0  02:36           0        6.92       0.032
  WS02006238           JUNCTION      0.00    61.58     0  02:39           0       0.785       0.188
  WS02006240           JUNCTION      0.00    60.94     0  02:37           0       0.779       0.249
  WS02006242           JUNCTION      0.00    61.02     0  02:35           0       0.783       0.512
  WS02006243           JUNCTION      0.00    61.05     0  02:35           0       0.784       0.185
  WS02006245           JUNCTION      0.00    61.06     0  02:34           0       0.787       0.323
  WS02006247           JUNCTION      0.00    61.08     0  02:34           0       0.789       0.273
  WS02006248           JUNCTION      0.00    61.09     0  02:33           0       0.789       0.085
  WS02006249           JUNCTION      0.00    61.12     0  02:33           0       0.793       0.421
  WS02006239           JUNCTION      0.00    61.11     0  02:38           0        0.78       0.262
  WS02006251           JUNCTION      0.08   362.71     0  02:33     0.00222        5.21       0.027
  WS02006252           JUNCTION      0.00   200.00     0  01:42           0        4.55       0.009
  WS02006253           JUNCTION      3.81   162.64     0  02:32      0.0139       0.661       0.316
  WS02006256           JUNCTION      0.00   683.00     0  00:00           0        10.3      -0.015
  WS02004138           JUNCTION      0.00   285.00     0  00:00           0        8.21       0.063
  WS02004139           JUNCTION      0.32   378.48     0  02:42     0.00924         8.7       0.077
  WS02004407           JUNCTION      0.00   572.11     0  02:36           0        3.54       0.050
  WS02006228           JUNCTION      0.00   542.79     0  02:34           0        3.52       0.195
  WS02006229           JUNCTION      0.00   773.95     0  02:33           0        4.03       0.192
  WS02006280           JUNCTION      0.00   773.94     0  02:33           0        3.34       0.002
  WS02006284           JUNCTION      0.10   773.82     0  02:33     0.00275        3.34       0.024
  WS02006287           JUNCTION      0.00   773.61     0  02:33           0        3.34       0.022
  WSF200               JUNCTION      0.00   569.85     0  02:39           0         3.5       0.023
  HS02004901           JUNCTION     39.10    39.10     0  02:30       0.147       0.147       1.214
  HS02004881           JUNCTION     14.88   159.13     0  02:32      0.0569       0.647       0.010
  HS02004876           JUNCTION     27.37   144.76     0  02:32        0.11        0.59       0.091
  HS02004870           JUNCTION     27.61   117.68     0  02:32       0.108        0.48       0.024
  HS02004862           JUNCTION     27.79    90.85     0  02:33       0.125       0.373       0.046
  HS02004856           JUNCTION     20.69    63.11     0  02:32       0.081        0.25       0.584
  HS02004852           JUNCTION      0.00    42.96     0  02:33           0       0.169       0.033
  HS02004848           JUNCTION     61.86    61.86     0  02:34       0.281       0.281       0.018
  HS02004842           JUNCTION      0.00    20.15     0  02:43           0       0.125      11.598
  HS02004837           JUNCTION     53.06    71.05     0  02:32        0.37       0.482       0.170
  HS02004830           JUNCTION      0.15    71.17     0  02:33     0.00432       0.472       0.262
  HS02004824           JUNCTION     73.03   144.31     0  02:34       0.341       0.812       0.067
  HS02004817           JUNCTION      0.60   146.68     0  02:36      0.0173       0.829       2.040
  HS02004807           JUNCTION     50.80   195.41     0  02:33       0.197        1.01       0.434
  HS02004802           JUNCTION      0.00   194.09     0  02:35           0        1.01       0.393
  HS02004799           JUNCTION     40.81   496.95     0  02:32        0.16        2.01       0.138
  HS02004792           JUNCTION    195.19   456.81     0  02:32       0.787        1.85       0.023
  HS02004788           JUNCTION     62.42   262.41     0  02:32       0.291        1.07       0.037
  HS02004785           JUNCTION      0.15   200.26     0  02:32     0.00432       0.777       0.063
  HS02004777           JUNCTION      0.03   200.34     0  02:31    0.000864       0.778       0.672
  HS02004770           JUNCTION    162.21   200.84     0  02:31       0.634       0.779       0.399
  HS02004480           JUNCTION      0.00   581.52     0  02:32           0        2.35       0.046
  HS02004479           JUNCTION      0.00    84.70     0  02:32           0       0.345       0.213
  HS02004478           JUNCTION      0.00   773.57     0  02:33           0        3.34       0.008
  YS02001745           JUNCTION    569.59   569.59     0  03:01        4.24        4.24       0.266
  YS02001748           JUNCTION      0.04   569.69     0  03:01      0.0013        4.23       0.551
  YS02001751           JUNCTION      0.01   569.71     0  03:01    0.000317        4.21       0.565
  YS02001754           JUNCTION      0.26   569.98     0  03:01     0.00749        4.19       0.593
  YS02001762           JUNCTION      0.00   406.66     0  02:22           0         2.5       0.849
  YS02001765           JUNCTION      0.00   406.94     0  02:22           0        2.51       0.980
  YS02001767           JUNCTION      0.54   407.07     0  02:22      0.0154        2.53       1.432
  YS02001770           JUNCTION    684.49   965.03     0  03:01        4.68        5.67       0.559
  YS02001774           JUNCTION      0.00   851.17     0  03:07           0        4.04       0.627
  YS02001779           JUNCTION      0.01   851.17     0  03:07    0.000144        4.01       0.383
  YS02001882           JUNCTION      0.00    22.37     0  02:16           0      0.0297       8.498
  YS02001884           JUNCTION      0.00    26.80     0  02:11           0      0.0659      10.262
  YS02001759           JUNCTION    659.44   812.11     0  02:23        4.33        5.81       0.396
  YS02001887           JUNCTION    805.63   805.65     0  02:46         4.9        4.93       0.175
  YS02001890           JUNCTION      0.00   805.64     0  02:46           0        4.88       0.195
  YS02001898           JUNCTION      0.00   521.77     0  02:21           0        4.22       0.061
  YS02001901           JUNCTION      0.00   521.73     0  02:21           0        4.22       0.178
  YS02001904           JUNCTION      0.00   521.76     0  02:21           0        4.22       0.150
  YS02001907           JUNCTION      0.00  1280.17     0  03:00           0        10.3       0.243
  YS02001910           JUNCTION      0.00   763.78     0  03:00           0        6.14       0.191
  YS02001915           JUNCTION    492.56   763.77     0  03:00        3.52        6.17       0.103
  YS02001918           JUNCTION      0.00   308.31     0  02:23           0        2.67       0.061
  YS02001619           JUNCTION    490.57   490.57     0  02:59        3.55        3.55       0.346
  YS02001629           JUNCTION      0.00   234.05     0  02:18           0        1.77       1.657
  YS02001641           JUNCTION      0.00   490.47     0  02:18           0        5.23       0.403
  YS02001644           JUNCTION    545.56  1795.88     0  03:01         4.1        14.4       0.182
  YS02001652           JUNCTION      0.00   597.71     0  02:48           0        3.69       0.631
  YS02001655           JUNCTION      0.15   597.71     0  02:48     0.00443        3.71       0.673
  YS02001920           JUNCTION      2.87   308.37     0  02:23      0.0827        2.65       0.117
  YS02001923           JUNCTION      0.04   273.60     0  03:01     0.00109        2.56       0.045
  YS02001926           JUNCTION      0.05   271.66     0  03:00      0.0015        2.55       0.137
  YS02001929           JUNCTION    269.79   269.79     0  03:01        2.55        2.55       0.027
  YS02001658           JUNCTION      0.00   597.54     0  02:48           0        3.73       0.609
  YS02001661           JUNCTION      0.00   758.16     0  02:24           0         4.4       0.076
  YS02001664           JUNCTION    596.69   596.69     0  02:49        3.74        4.41       0.151
  YS02001622           JUNCTION      0.00   490.57     0  02:59           0        3.53       0.906
  YS02001633           JUNCTION    556.05   556.05     0  03:01        4.22        5.61       0.574
  YS02001649           JUNCTION      0.00  1227.65     0  03:01           0        7.79       0.476
  YS02001757           JUNCTION      0.00  2073.84     0  02:20           0        11.2       0.830
  YS02001895           JUNCTION      0.00   521.54     0  02:21           0        4.23       0.129
  YS02001625           JUNCTION      0.00   642.87     0  03:01           0        3.83       1.011
  YS02163301           JUNCTION      0.00   233.53     0  02:18           0        1.75       1.379
  YS02163601           JUNCTION      0.11   490.39     0  02:18     0.00317        5.25       0.575
  YS02164001           JUNCTION      0.00   490.40     0  02:18           0        5.23       0.383
  YS02001647           JUNCTION      0.00   846.70     0  03:15           0        6.48       0.433
  YSB1154              JUNCTION     47.67    47.67     0  02:30       0.193       0.194       0.753
  YSB6556              JUNCTION      0.00    47.40     0  02:31           0       0.194       0.647
  YSB1174              JUNCTION     39.23    39.23     0  02:28       0.144       0.145       0.897
  YSB1171              JUNCTION      0.00    85.03     0  02:31           0       0.344       1.874
  YS02006553           JUNCTION      0.00   693.61     0  02:22           0        7.18       0.218
  YS02006561           JUNCTION      0.00  1148.20     0  02:27           0        11.7       0.006
  YS02006556           JUNCTION      0.00   693.65     0  02:22           0        7.18       0.160
  YS02006558           JUNCTION    711.33  1148.57     0  02:27        4.54        11.7       0.047
  YS02001783           JUNCTION      0.00  1148.35     0  02:27           0        11.7       0.023
  YS02001784           JUNCTION      1.06  1149.40     0  02:27      0.0305        11.7       0.035
  YS02001786           JUNCTION      0.06  1149.34     0  02:27     0.00162        11.7       0.034
  YS02001788           JUNCTION      0.07  1149.37     0  02:27     0.00204        11.7       0.019
  YS02001790           JUNCTION      0.15  1158.93     0  02:26     0.00446        11.7       0.028
  YS02001791           JUNCTION      0.00  1264.37     0  02:25           0        11.7       0.008
  YS02001793           JUNCTION      0.00  1223.44     0  02:25           0        11.7       0.002
  WSC                  OUTFALL       0.00   501.71     0  02:43           0        3.71       0.000
  3                    OUTFALL       0.00   567.39     0  02:36           0        6.46       0.000
  4                    OUTFALL       0.00   301.59     0  02:33           0        4.42       0.000
  5                    OUTFALL       0.00   378.46     0  02:43           0        8.68       0.000
  JK-storage           STORAGE       0.00  1219.87     0  02:22           0        11.8      -0.240
  CC-storage           STORAGE       0.00  2073.65     0  02:20           0        8.36       0.779
  XR-storage           STORAGE    1319.18  1319.18     0  03:01        16.4          17      -0.002
  
  
  **********************
  Node Surcharge Summary
  **********************
  
  Surcharging occurs when water rises above the top of the highest conduit.
  ---------------------------------------------------------------------
                                               Max. Height   Min. Depth
                                   Hours       Above Crown    Below Rim
  Node                 Type      Surcharged         Meters       Meters
  ---------------------------------------------------------------------
  WS02006109           JUNCTION        0.77          0.158        1.662
  WS02006110           JUNCTION        0.19          0.017        1.833
  WS02006112           JUNCTION        0.45          0.127        1.553
  WS02006256           JUNCTION        6.56          2.050        0.000
  WS02006228           JUNCTION        0.76          0.187        2.013
  HS02004817           JUNCTION        0.25          0.024        1.716
  YS02001745           JUNCTION        0.22          0.013        1.337
  YS02001748           JUNCTION        5.71          1.109        0.081
  YS02001751           JUNCTION        5.80          1.089        0.111
  YS02001754           JUNCTION        5.90          0.988        0.162
  YS02001762           JUNCTION        6.12          1.063        0.087
  YS02001765           JUNCTION        6.10          1.009        0.091
  YS02001767           JUNCTION        6.08          0.964        0.066
  YS02001770           JUNCTION        6.07          0.920        0.000
  YS02001774           JUNCTION        6.10          0.993        0.057
  YS02001779           JUNCTION        5.89          0.680        0.000
  YS02001882           JUNCTION        1.79          0.643        0.187
  YS02001884           JUNCTION        1.82          0.684        0.186
  YS02001759           JUNCTION        6.13          1.103        0.107
  YS02001887           JUNCTION        1.91          0.773        0.177
  YS02001890           JUNCTION        1.94          0.760        0.000
  YS02001898           JUNCTION        1.74          0.533        0.207
  YS02001901           JUNCTION        1.87          0.677        0.193
  YS02001904           JUNCTION        1.85          0.636        0.214
  YS02001907           JUNCTION        2.41          0.950        0.000
  YS02001910           JUNCTION        1.99          0.799        0.301
  YS02001915           JUNCTION        1.78          0.623        0.377
  YS02001918           JUNCTION        1.53          0.322        0.488
  YS02001619           JUNCTION        5.82          0.515        0.095
  YS02001629           JUNCTION        5.82          0.470        0.000
  YS02001641           JUNCTION        6.11          0.935        0.165
  YS02001644           JUNCTION        6.11          0.920        0.000
  YS02001652           JUNCTION        5.92          1.104        0.026
  YS02001655           JUNCTION        5.82          1.193        0.007
  YS02001920           JUNCTION        1.57          0.415        0.725
  YS02001926           JUNCTION        0.01          0.117        0.783
  YS02001658           JUNCTION        5.73          1.237        0.063
  YS02001661           JUNCTION        0.73          1.257        0.133
  YS02001622           JUNCTION        5.82          0.523        0.097
  YS02001633           JUNCTION        6.09          0.937        0.123
  YS02001649           JUNCTION        6.12          1.050        0.000
  YS02001757           JUNCTION        6.20          1.200        0.010
  YS02001895           JUNCTION        1.76          0.568        0.182
  YS02001625           JUNCTION        6.02          0.780        0.000
  YS02163301           JUNCTION        6.07          0.904        0.126
  YS02163601           JUNCTION        6.12          0.999        0.081
  YS02164001           JUNCTION        6.10          0.924        0.176
  YS02001647           JUNCTION        5.93          0.813        0.087
  YS02006553           JUNCTION        2.46          1.116        0.074
  YS02006561           JUNCTION        1.62          0.795        0.355
  YS02006556           JUNCTION        2.19          1.223        0.127
  YS02006558           JUNCTION        2.15          1.269        0.131
  YS02001783           JUNCTION        2.16          1.280        0.320
  YS02001784           JUNCTION        2.15          1.325        0.165
  YS02001786           JUNCTION        2.06          1.237        0.193
  YS02001788           JUNCTION        1.92          1.480        0.000
  YS02001790           JUNCTION        2.01          1.157        0.000
  YS02001791           JUNCTION        2.03          0.881        1.039
  YS02001793           JUNCTION        2.12          0.804        1.796
  
  
  *********************
  Node Flooding Summary
  *********************
  
  Flooding refers to all water that overflows a node, whether it ponds or not.
  --------------------------------------------------------------------------
                                                             Total   Maximum
                                 Maximum   Time of Max       Flood    Ponded
                        Hours       Rate    Occurrence      Volume     Depth
  Node                 Flooded       LPS   days hr:min    10^6 ltr    Meters
  --------------------------------------------------------------------------
  WS02006256              4.05    678.53      0  00:00       4.681     0.000
  YS02001770              0.35    113.86      0  03:01       0.080     0.000
  YS02001779              3.40    851.17      0  03:07       3.994     0.000
  YS02001890              0.90    289.25      0  02:46       0.640     0.000
  YS02001907              1.39   1006.84      0  02:55       3.153     0.000
  YS02001629              0.01      7.38      0  02:14       0.000     0.000
  YS02001644              5.65   1795.88      0  03:01      12.928     0.000
  YS02001649              0.54    380.95      0  03:01       0.400     0.000
  YS02001625              2.02    642.87      0  03:01       2.353     0.000
  YS02001788              0.01     70.37      0  02:28       0.000     0.000
  YS02001790              0.01     11.09      0  02:28       0.000     0.000
  JK-storage              1.88    317.64      0  02:29       1.591     0.000
  XR-storage              5.52   1034.15      0  03:01       7.828     0.000
  
  
  **********************
  Storage Volume Summary
  **********************
  
  --------------------------------------------------------------------------------------------------
                         Average     Avg  Evap Exfil       Maximum     Max    Time of Max    Maximum
                          Volume    Pcnt  Pcnt  Pcnt        Volume    Pcnt     Occurrence    Outflow
  Storage Unit           1000 m3    Full  Loss  Loss       1000 m3    Full    days hr:min        LPS
  --------------------------------------------------------------------------------------------------
  JK-storage               0.106      36     0     0         0.291     100       0  02:29     683.00
  CC-storage               3.250      21     0     0         4.067      26       0  03:04     200.00
  XR-storage               0.836      90     0     0         0.926     100       0  02:28     285.00
  
  
  ***********************
  Outfall Loading Summary
  ***********************
  
  ---------------------------------------------------------------------------------------------------------------------------------
                         Flow       Avg       Max       Total         Total         Total         Total         Total         Total
                         Freq      Flow      Flow      Volume           COD            SS            TN            TP         NH4-N
  Outfall Node           Pcnt       LPS       LPS    10^6 ltr            kg            kg            kg            kg            kg
  ---------------------------------------------------------------------------------------------------------------------------------
  WSC                   99.99    152.93    501.71       3.706       524.995       975.498        23.424         2.567        13.625
  3                     99.99    267.37    567.39       6.458       481.965       937.040         9.636         0.705         4.721
  4                     99.99    184.43    301.59       4.420       453.128       870.196         8.932         0.624         4.326
  5                    100.00    304.24    378.46       8.684      1224.554      2079.577        92.350        11.159        56.600
  ---------------------------------------------------------------------------------------------------------------------------------
  System                99.99    908.98   1719.81      23.268      2684.643      4862.312       134.341        15.054        79.273
  
  
  ********************
  Link Flow Summary
  ********************
  
  -----------------------------------------------------------------------------
                                 Maximum  Time of Max   Maximum    Max/    Max/
                                  |Flow|   Occurrence   |Veloc|    Full    Full
  Link                 Type          LPS  days hr:min     m/sec    Flow   Depth
  -----------------------------------------------------------------------------
  WS02003066WSF200     CONDUIT    569.85     0  02:39      2.93    0.10    0.23
  WS02006287WS02006284 CONDUIT    773.72     0  02:33      2.48    0.36    0.42
  WS02006284WS02006280 CONDUIT    773.94     0  02:33      2.71    0.32    0.39
  WS02006280WS02006229 CONDUIT    773.95     0  02:33      4.41    0.17    0.27
  WS02006229WS02006228 CONDUIT    542.79     0  02:34      1.08    1.80    1.00
  WS02006256WS02006235 CONDUIT    289.81     0  03:06      4.46    3.07    1.00
  WS02006253WS02006251 CONDUIT    162.63     0  02:33      0.99    0.49    0.44
  WS02006252WS02006251 CONDUIT    200.43     0  01:42      1.97    0.74    0.76
  WS02006251WS02006249 CONDUIT     61.12     0  02:33      0.62    0.18    0.30
  WS02006249WS02006248 CONDUIT     61.09     0  02:33      0.73    0.33    0.27
  WS02006248WS02006247 CONDUIT     61.08     0  02:34      0.70    0.13    0.28
  WS02006247WS02006245 CONDUIT     61.06     0  02:34      0.65    0.48    0.29
  WS02006245WS02006243 CONDUIT     61.05     0  02:35      0.79    0.18    0.25
  WS02006243WS02006242 CONDUIT     61.02     0  02:35      0.66    0.13    0.30
  WS02006242WS02006240 CONDUIT     60.94     0  02:37      0.50    0.24    0.35
  WS02006240WS02006239 CONDUIT     61.11     0  02:38      0.65    0.19    0.33
  WS02006239WS02006238 CONDUIT     61.58     0  02:39      0.52    0.20    0.42
  WS02006238WS02006235 CONDUIT     61.96     0  02:39      1.18    0.14    0.46
  WS02006235WS02006234 CONDUIT    241.46     0  02:35      1.26    2.55    0.50
  WS02006234WS02006232 CONDUIT    241.52     0  02:34      0.82    0.49    0.72
  WS02006232WS02006231 CONDUIT    241.66     0  02:34      0.74    0.51    0.79
  WS02006231WS02006230 CONDUIT    242.07     0  02:33      0.76    3.67    0.78
  WS02006230WS02006229 CONDUIT    232.25     0  02:32      0.60    5.17    1.00
  WS02006228WS02006109 CONDUIT    542.78     0  02:34      1.08    2.37    1.00
  WS02006116WS02004401 CONDUIT    573.55     0  02:35      0.79    0.79    0.87
  WS02006115WS02006116 CONDUIT    575.86     0  02:35      0.88    0.74    0.79
  WS02006113WS02006111 CONDUIT    565.45     0  02:35      2.47    0.68    0.46
  WS02006112WS02006115 CONDUIT    591.72     0  02:33      0.81    0.35    0.89
  WS02006111WS02006112 CONDUIT    549.69     0  02:35      1.52    0.26    0.67
  WS02006110WS02006113 CONDUIT    544.27     0  02:34      1.29    0.50    0.79
  WS02006109WS02006110 CONDUIT    543.99     0  02:34      1.08    1.05    1.00
  WS02004411WS02004412 CONDUIT    569.93     0  02:38      0.95    0.81    0.71
  WS02004401WS02004402 CONDUIT    572.63     0  02:36      0.78    0.69    0.89
  WS02004413WS02003067 CONDUIT    569.79     0  02:39      1.15    0.24    0.60
  WS02004412WS02004413 CONDUIT    569.93     0  02:39      0.88    0.38    0.79
  WS02004410WS02004411 CONDUIT    570.34     0  02:38      0.96    0.78    0.71
  WS02004409WS02004410 CONDUIT    570.81     0  02:38      0.98    0.74    0.70
  WS02004407WS02004409 CONDUIT    571.95     0  02:37      1.47    0.20    0.50
  WS02004406WS02004407 CONDUIT    572.11     0  02:36      1.08    0.26    0.64
  WS02004405WS02004406 CONDUIT    572.62     0  02:36      0.73    1.13    0.98
  WS02004404WS02004405 CONDUIT    571.99     0  02:36      0.73    5.60    0.98
  WS02004403WS02004404 CONDUIT    572.38     0  02:36      0.74    0.41    0.95
  WS02004402WS02004403 CONDUIT    573.06     0  02:36      0.76    0.82    0.91
  WS02004139WS02001211 CONDUIT     93.16     0  02:42      0.56    0.12    0.20
  WS02004138WS02004139 CONDUIT    292.30     0  00:00      3.35    0.06    0.18
  WS02003067WS02003066 CONDUIT    569.83     0  02:39      1.25    0.18    0.42
  WS02001213WS02003059 CONDUIT     86.42     0  02:39      0.19    0.14    0.56
  WS02001212WS02001213 CONDUIT     86.06     0  02:40      0.82    0.13    0.19
  WS02001211WS02001212 CONDUIT     85.94     0  02:41      0.52    0.07    0.27
  WS02003072WS02003073 CONDUIT    499.96     0  02:42      1.38    1.08    0.36
  WS02003069WS02003072 CONDUIT    499.97     0  02:41      1.33    0.24    0.37
  WS02003060WS02003069 CONDUIT    499.69     0  02:40      1.60    0.20    0.32
  WS02003059WS02003060 CONDUIT     87.68     0  02:38      0.56    0.06    0.49
  HS02004901HS02004770 CONDUIT     38.70     0  02:31      0.10    0.15    0.56
  HS02004876HS02004881 CONDUIT    144.78     0  02:33      1.28    1.54    0.16
  HS02004870HS02004876 CONDUIT    117.66     0  02:33      0.87    0.08    0.19
  HS02004842HS02004848 CONDUIT     20.15     0  02:43      0.09    0.01    0.34
  HS02004837HS02004842 CONDUIT     20.59     0  02:44      0.42    0.01    0.36
  HS02004830HS02004837 CONDUIT     71.02     0  02:33      0.69    0.07    0.15
  HS02004824HS02004830 CONDUIT     71.31     0  02:34      0.62    0.09    0.20
  HS02004817HS02004824 CONDUIT    146.08     0  02:36      0.34    0.07    0.61
  HS02004770HS02004777 CONDUIT    200.31     0  02:31      0.51    0.37    0.56
  HS02004799HS02004480 CONDUIT    496.89     0  02:32      1.12    0.63    0.64
  HS02004792HS02004799 CONDUIT    456.69     0  02:32      1.26    0.28    0.52
  HS02004788HS02004792 CONDUIT    262.34     0  02:32      1.31    0.17    0.29
  HS02004785HS02004788 CONDUIT    200.23     0  02:32      0.94    1.51    0.31
  HS02004777HS02004785 CONDUIT    200.11     0  02:32      0.60    0.25    0.47
  HS02004480HS02004478 CONDUIT    581.55     0  02:32      1.61    2.45    0.51
  HS02004479HS02004480 CONDUIT     84.64     0  02:32      0.32    0.08    0.61
  HS02004862HS02004870 CONDUIT     90.85     0  02:33      0.84    0.10    0.15
  HS02004848HS02004852 CONDUIT     42.96     0  02:33      0.55    0.05    0.11
  HS02004856HS02004862 CONDUIT     63.07     0  02:33      0.62    0.06    0.15
  HS02004852HS02004856 CONDUIT     43.00     0  02:34      0.36    0.05    0.17
  HS02004802HS02004478 CONDUIT    194.68     0  02:35      0.54    0.17    0.52
  HS02004478WS02006287 CONDUIT    773.61     0  02:33      2.22    0.22    0.39
  HS02004817HS02004807 CONDUIT    147.34     0  02:35      0.27    0.09    0.78
  HS02004807HS02004802 CONDUIT    194.09     0  02:35      0.48    0.37    0.57
  YS02001759YS02001757 CONDUIT    812.12     0  02:23      1.03    0.58    1.00
  YS02001762YS02001759 CONDUIT    406.86     0  02:22      0.52    0.47    1.00
  YS02001765YS02001762 CONDUIT    406.66     0  02:22      0.52    0.38    1.00
  YS02001770YS02001767 CONDUIT    406.54     0  02:22      0.52    1.61    1.00
  YS02001774YS02001770 CONDUIT    851.17     0  03:07      1.08    0.54    1.00
  YS02001779YS02001774 CONDUIT    851.17     0  03:07      1.08    0.43    1.00
  YS02001649YS02001757 CONDUIT   1051.00     0  02:19      1.34    0.64    1.00
  YS02001767YS02001765 CONDUIT    406.94     0  02:22      0.52    0.51    1.00
  YS02006561YS02001783 CONDUIT   1148.35     0  02:27      2.28    0.59    1.00
  YS02001783YS02001784 CONDUIT   1148.34     0  02:27      2.28    1.58    1.00
  YS02001784YS02001785 CONDUIT   1149.28     0  02:27      2.29    2.67    1.00
  YS02001788YS02001790 CONDUIT   1158.77     0  02:26      2.70    0.85    1.00
  YS02001790YS02001791 CONDUIT   1264.37     0  02:25      3.40    1.38    1.00
  YS02001791YS02001793 CONDUIT   1223.44     0  02:25      6.70    0.53    1.00
  YS02001910YS02001907 CONDUIT    763.78     0  03:00      0.97    0.43    1.00
  YS02001786YS02001788 CONDUIT   1149.30     0  02:27      2.46    2.21    1.00
  YS02001915YS02001910 CONDUIT    763.78     0  03:00      0.97    0.38    1.00
  YS02001918YS02001915 CONDUIT    308.64     0  02:23      0.49    0.17    1.00
  YS02001923YS02001920 CONDUIT    305.50     0  02:23      0.83    0.14    1.00
  YS02001926YS02001923 CONDUIT    273.56     0  03:01      0.91    0.39    0.98
  YS02001929YS02001926 CONDUIT    271.61     0  03:00      0.98    0.13    0.89
  YS02001920YS02001918 CONDUIT    308.31     0  02:23      0.79    0.30    1.00
  YS02001629YS02163301 CONDUIT    233.53     0  02:18      0.30    0.29    1.00
  YS02001619YS02001622 CONDUIT    490.57     0  02:59      0.64    0.72    1.00
  YS02001622YS02001625 CONDUIT    490.57     0  02:59      0.62    0.26    1.00
  YS02001625YS02001629 CONDUIT    234.05     0  02:18      0.30    0.11    1.00
  YS02163301YS02001633 CONDUIT    233.64     0  02:18      0.30    0.22    1.00
  YS02163601YS02164001 CONDUIT    490.40     0  02:18      0.62    0.43    1.00
  YS02164001YS02001641 CONDUIT    490.47     0  02:18      0.62    0.67    1.00
  YS02001641YS02001644 CONDUIT    490.22     0  02:18      0.62    1.58    1.00
  YS02001647YS02001649 CONDUIT    846.70     0  03:15      1.08    0.45    1.00
  YS02006553YS02006556 CONDUIT    693.65     0  02:22      0.88    0.59    1.00
  YS02006556YS02006558 CONDUIT    694.08     0  02:21      0.88    0.55    1.00
  YSB6556YSB1171       CONDUIT     47.31     0  02:32      0.14    0.05    0.84
  YS02001907YS02006553 CONDUIT    693.61     0  02:22      0.77    0.82    1.00
  YS02006558YS02006561 CONDUIT   1148.20     0  02:27      4.06    2.54    1.00
  YS02001633YS02163601 CONDUIT    490.28     0  02:18      0.62    0.51    1.00
  YS02001644YS02001647 CONDUIT    846.70     0  03:15      1.08    0.50    1.00
  YS02001745YS02001748 CONDUIT    569.65     0  03:01      1.52    0.22    1.00
  YS02001748YS02001751 CONDUIT    569.70     0  03:01      1.09    0.29    1.00
  YS02001751YS02001754 CONDUIT    569.72     0  03:01      0.93    0.27    1.00
  YS02001754YS02001757 CONDUIT    569.98     0  03:01      0.73    0.23    1.00
  YS02001882YS02001884 CONDUIT     22.37     0  02:16      0.13    0.03    1.00
  YS02001884YS02001887 CONDUIT     26.80     0  02:11      0.09    0.04    1.00
  YS02001890YS02001895 CONDUIT    521.54     0  02:21      0.66    0.24    1.00
  YS02001895YS02001898 CONDUIT    521.77     0  02:21      0.66    0.91    1.00
  YS02001898YS02001901 CONDUIT    521.73     0  02:21      0.66    0.34    1.00
  YS02001901YS02001904 CONDUIT    521.76     0  02:21      0.66    0.81    1.00
  YS02001904YS02001907 CONDUIT    521.68     0  02:21      0.66    0.18    1.00
  YS02001887YS02001890 CONDUIT    805.64     0  02:46      1.03    1.38    1.00
  YS02001652YS02001649 CONDUIT    597.72     0  02:48      0.76    0.30    1.00
  YS02001655YS02001652 CONDUIT    597.71     0  02:48      1.00    0.29    1.00
  YS02001658YS02001655 CONDUIT    597.55     0  02:48      1.26    0.25    1.00
  YS02001661YS02001658 CONDUIT    597.54     0  02:48      1.60    0.23    1.00
  YS02001664YS02001661 CONDUIT    758.16     0  02:24      1.68    0.24    0.78
  YSB1154YSB6556       CONDUIT     47.40     0  02:31      0.15    0.09    0.77
  YSB1174YSB1171       CONDUIT     38.54     0  02:29      0.11    0.06    0.88
  YSB1171HS02004479    CONDUIT     84.70     0  02:32      0.54    0.06    0.71
  HS02004881HS02006253 CONDUIT    159.13     0  02:32      2.85    0.03    0.08
  YS02001793JiankangQianchi CONDUIT   1219.87     0  02:22     17.39    0.10    1.00
  YS02001757CaochengTiaoxuchi CONDUIT   2073.65     0  02:20      3.01    0.91    1.00
  WSF200WS02003060     CONDUIT    569.93     0  02:40      2.26    0.13    0.27
  1                    CONDUIT    501.71     0  02:43      2.75    0.17    0.28
  CC-Pump-1            PUMP         0.00     0  00:00              0.00
  CC-Pump-2            PUMP       200.00     0  01:42              1.00
  JK-Pump-1            PUMP         0.00     0  00:00              0.00
  JK-Pump-2            PUMP       683.00     0  00:00              1.00
  XR-Pump-1            PUMP        95.00     0  00:00              1.00
  XR-Pump-2            PUMP        95.00     0  00:00              1.00
  XR-Pump-3            PUMP        95.00     0  00:00              1.00
  XR-Pump-4            PUMP         0.00     0  00:00              0.00
  3                    WEIR       301.59     0  02:33                      0.20
  5                    WEIR       567.39     0  02:36                      0.31
  6                    WEIR       378.46     0  02:43                      0.23
  
  
  ***************************
  Flow Classification Summary
  ***************************
  
  -------------------------------------------------------------------------------------
                      Adjusted    ---------- Fraction of Time in Flow Class ---------- 
                       /Actual         Up    Down  Sub   Sup   Up    Down  Norm  Inlet 
  Conduit               Length    Dry  Dry   Dry   Crit  Crit  Crit  Crit  Ltd   Ctrl  
  -------------------------------------------------------------------------------------
  WS02003066WSF200        1.00   0.06  0.00  0.00  0.00  0.94  0.00  0.00  0.73  0.00
  WS02006287WS02006284    1.00   0.02  0.01  0.00  0.59  0.38  0.00  0.00  0.63  0.00
  WS02006284WS02006280    1.00   0.02  0.00  0.00  0.00  0.00  0.00  0.98  0.00  0.00
  WS02006280WS02006229    1.00   0.02  0.00  0.00  0.00  0.00  0.00  0.98  0.00  0.00
  WS02006229WS02006228    1.00   0.00  0.00  0.00  1.00  0.00  0.00  0.00  0.00  0.00
  WS02006256WS02006235    1.00   0.00  0.00  0.00  0.08  0.92  0.00  0.00  0.02  0.00
  WS02006253WS02006251    1.00   0.01  0.01  0.00  0.78  0.00  0.20  0.00  0.00  0.00
  WS02006252WS02006251    1.00   0.04  0.00  0.00  0.00  0.00  0.96  0.00  0.00  0.00
  WS02006251WS02006249    1.00   0.00  0.00  0.00  1.00  0.00  0.00  0.00  0.77  0.00
  WS02006249WS02006248    1.00   0.00  0.03  0.00  0.19  0.00  0.79  0.00  0.00  0.00
  WS02006248WS02006247    1.00   0.03  0.00  0.00  0.97  0.00  0.00  0.01  0.69  0.00
  WS02006247WS02006245    1.00   0.03  0.00  0.00  0.96  0.00  0.00  0.02  0.00  0.00
  WS02006245WS02006243    1.00   0.03  0.00  0.00  0.94  0.00  0.00  0.03  0.00  0.00
  WS02006243WS02006242    1.00   0.01  0.02  0.00  0.96  0.00  0.00  0.01  0.80  0.00
  WS02006242WS02006240    1.00   0.00  0.03  0.00  0.95  0.00  0.02  0.00  0.18  0.00
  WS02006240WS02006239    1.00   0.00  0.00  0.00  0.96  0.00  0.00  0.04  0.01  0.00
  WS02006239WS02006238    1.00   0.00  0.00  0.00  1.00  0.00  0.00  0.00  0.15  0.00
  WS02006238WS02006235    1.00   0.00  0.00  0.00  1.00  0.00  0.00  0.00  0.00  0.00
  WS02006235WS02006234    1.00   0.03  0.00  0.00  0.93  0.00  0.01  0.03  0.00  0.00
  WS02006234WS02006232    1.00   0.00  0.00  0.00  1.00  0.00  0.00  0.00  0.14  0.00
  WS02006232WS02006231    1.00   0.00  0.00  0.00  1.00  0.00  0.00  0.00  0.01  0.00
  WS02006231WS02006230    1.00   0.00  0.00  0.00  0.29  0.00  0.71  0.00  0.00  0.00
  WS02006230WS02006229    1.00   0.00  0.00  0.00  0.99  0.00  0.00  0.01  0.01  0.00
  WS02006228WS02006109    1.00   0.00  0.00  0.00  1.00  0.00  0.00  0.00  0.00  0.00
  WS02006116WS02004401    1.00   0.02  0.00  0.00  0.98  0.00  0.00  0.00  0.00  0.00
  WS02006115WS02006116    1.00   0.02  0.00  0.00  0.97  0.00  0.00  0.02  0.00  0.00
  WS02006113WS02006111    1.00   0.01  0.00  0.00  0.00  0.99  0.00  0.00  0.04  0.00
  WS02006112WS02006115    1.00   0.01  0.01  0.00  0.98  0.00  0.00  0.00  0.00  0.00
  WS02006111WS02006112    1.00   0.01  0.00  0.00  0.99  0.00  0.00  0.00  0.93  0.00
  WS02006110WS02006113    1.00   0.00  0.01  0.00  0.99  0.00  0.00  0.00  0.00  0.00
  WS02006109WS02006110    1.00   0.00  0.00  0.00  1.00  0.00  0.00  0.00  0.00  0.00
  WS02004411WS02004412    1.00   0.04  0.00  0.00  0.96  0.00  0.00  0.00  0.00  0.00
  WS02004401WS02004402    1.00   0.02  0.00  0.00  0.98  0.00  0.00  0.00  0.04  0.00
  WS02004413WS02003067    1.00   0.04  0.01  0.00  0.00  0.00  0.95  0.00  0.00  0.00
  WS02004412WS02004413    1.00   0.04  0.00  0.00  0.96  0.00  0.00  0.00  0.00  0.00
  WS02004410WS02004411    1.00   0.04  0.00  0.00  0.96  0.00  0.00  0.00  0.00  0.00
  WS02004409WS02004410    1.00   0.04  0.00  0.00  0.96  0.00  0.00  0.00  0.00  0.00
  WS02004407WS02004409    1.00   0.04  0.00  0.00  0.96  0.00  0.00  0.00  0.80  0.00
  WS02004406WS02004407    1.00   0.00  0.04  0.00  0.96  0.00  0.00  0.00  0.00  0.00
  WS02004405WS02004406    1.00   0.00  0.00  0.00  1.00  0.00  0.00  0.00  0.04  0.00
  WS02004404WS02004405    1.00   0.00  0.00  0.00  1.00  0.00  0.00  0.00  0.00  0.00
  WS02004403WS02004404    1.00   0.00  0.02  0.00  0.98  0.00  0.00  0.00  0.04  0.00
  WS02004402WS02004403    1.00   0.02  0.00  0.00  0.98  0.00  0.00  0.00  0.00  0.00
  WS02004139WS02001211    1.00   0.00  0.00  0.00  1.00  0.00  0.00  0.00  0.00  0.00
  WS02004138WS02004139    1.00   0.00  0.00  0.00  0.00  0.13  0.00  0.87  0.11  0.00
  WS02003067WS02003066    1.00   0.05  0.01  0.00  0.94  0.00  0.00  0.00  0.00  0.00
  WS02001213WS02003059    1.00   0.00  0.00  0.00  1.00  0.00  0.00  0.00  0.00  0.00
  WS02001212WS02001213    1.00   0.00  0.00  0.00  0.41  0.00  0.59  0.00  0.01  0.00
  WS02001211WS02001212    1.00   0.00  0.00  0.00  1.00  0.00  0.00  0.00  0.23  0.00
  WS02003072WS02003073    1.00   0.00  0.00  0.00  0.00  0.00  0.00  1.00  0.00  0.00
  WS02003069WS02003072    1.00   0.00  0.00  0.00  1.00  0.00  0.00  0.00  0.89  0.00
  WS02003060WS02003069    1.00   0.00  0.00  0.00  0.98  0.02  0.00  0.00  0.80  0.00
  WS02003059WS02003060    1.00   0.00  0.00  0.00  1.00  0.00  0.00  0.00  0.08  0.00
  HS02004901HS02004770    1.00   0.02  0.00  0.00  0.98  0.00  0.00  0.00  0.00  0.00
  HS02004876HS02004881    1.00   0.00  0.00  0.00  0.82  0.18  0.00  0.00  0.00  0.00
  HS02004870HS02004876    1.00   0.00  0.00  0.00  1.00  0.00  0.00  0.00  0.95  0.00
  HS02004842HS02004848    1.00   0.00  0.02  0.00  0.98  0.00  0.00  0.00  0.56  0.00
  HS02004837HS02004842    1.00   0.00  0.00  0.00  1.00  0.00  0.00  0.00  0.11  0.00
  HS02004830HS02004837    1.00   0.00  0.00  0.00  1.00  0.00  0.00  0.00  0.99  0.00
  HS02004824HS02004830    1.00   0.00  0.00  0.00  1.00  0.00  0.00  0.00  0.03  0.00
  HS02004817HS02004824    1.00   0.00  0.00  0.00  1.00  0.00  0.00  0.00  0.91  0.00
  HS02004770HS02004777    1.00   0.00  0.02  0.00  0.98  0.00  0.00  0.00  0.02  0.00
  HS02004799HS02004480    1.00   0.00  0.01  0.00  0.97  0.00  0.02  0.00  0.00  0.00
  HS02004792HS02004799    1.00   0.00  0.00  0.00  1.00  0.00  0.00  0.00  0.98  0.00
  HS02004788HS02004792    1.00   0.00  0.00  0.00  1.00  0.00  0.00  0.00  0.98  0.00
  HS02004785HS02004788    1.00   0.00  0.00  0.00  1.00  0.00  0.00  0.00  0.00  0.00
  HS02004777HS02004785    1.00   0.00  0.00  0.00  1.00  0.00  0.00  0.00  0.11  0.00
  HS02004480HS02004478    1.00   0.02  0.00  0.00  0.65  0.00  0.00  0.33  0.00  0.00
  HS02004479HS02004480    1.00   0.01  0.00  0.00  0.99  0.00  0.00  0.00  0.11  0.00
  HS02004862HS02004870    1.00   0.00  0.00  0.00  1.00  0.00  0.00  0.00  0.03  0.00
  HS02004848HS02004852    1.00   0.02  0.00  0.00  0.98  0.00  0.00  0.00  0.72  0.00
  HS02004856HS02004862    1.00   0.00  0.03  0.00  0.97  0.00  0.00  0.00  0.84  0.00
  HS02004852HS02004856    1.00   0.02  0.00  0.00  0.98  0.00  0.00  0.00  0.75  0.00
  HS02004802HS02004478    1.00   0.02  0.00  0.00  0.98  0.00  0.00  0.00  0.02  0.00
  HS02004478WS02006287    1.00   0.03  0.00  0.00  0.70  0.27  0.00  0.00  0.63  0.00
  HS02004817HS02004807    1.00   0.00  0.02  0.00  0.98  0.00  0.00  0.00  0.01  0.00
  HS02004807HS02004802    1.00   0.02  0.00  0.00  0.97  0.00  0.00  0.00  0.00  0.00
  YS02001759YS02001757    1.00   0.00  0.00  0.00  1.00  0.00  0.00  0.00  0.15  0.00
  YS02001762YS02001759    1.00   0.00  0.00  0.00  1.00  0.00  0.00  0.00  0.03  0.00
  YS02001765YS02001762    1.00   0.00  0.00  0.00  1.00  0.00  0.00  0.00  0.13  0.00
  YS02001770YS02001767    1.00   0.00  0.00  0.00  1.00  0.00  0.00  0.00  0.00  0.00
  YS02001774YS02001770    1.00   0.00  0.02  0.00  0.98  0.00  0.00  0.00  0.02  0.00
  YS02001779YS02001774    1.00   0.00  0.00  0.00  1.00  0.00  0.00  0.00  0.17  0.00
  YS02001649YS02001757    1.00   0.00  0.00  0.00  1.00  0.00  0.00  0.00  0.15  0.00
  YS02001767YS02001765    1.00   0.00  0.00  0.00  1.00  0.00  0.00  0.00  0.00  0.00
  YS02006561YS02001783    1.00   0.03  0.00  0.00  0.36  0.61  0.00  0.00  0.41  0.00
  YS02001783YS02001784    1.00   0.00  0.03  0.00  0.97  0.00  0.00  0.00  0.00  0.00
  YS02001784YS02001785    1.00   0.00  0.00  0.00  1.00  0.00  0.00  0.00  0.16  0.00
  YS02001788YS02001790    1.00   0.00  0.00  0.00  0.35  0.65  0.00  0.00  0.38  0.00
  YS02001790YS02001791    1.00   0.00  0.00  0.00  0.32  0.68  0.00  0.00  0.50  0.00
  YS02001791YS02001793    1.00   0.00  0.00  0.00  0.33  0.67  0.00  0.00  0.01  0.00
  YS02001910YS02001907    1.00   0.00  0.00  0.00  0.99  0.00  0.00  0.01  0.12  0.00
  YS02001786YS02001788    1.00   0.00  0.00  0.00  0.37  0.63  0.00  0.00  0.00  0.00
  YS02001915YS02001910    1.00   0.00  0.00  0.00  0.99  0.01  0.00  0.00  0.14  0.00
  YS02001918YS02001915    1.00   0.00  0.00  0.00  1.00  0.00  0.00  0.00  0.51  0.00
  YS02001923YS02001920    1.00   0.00  0.00  0.00  1.00  0.00  0.00  0.00  0.74  0.00
  YS02001926YS02001923    1.00   0.00  0.01  0.00  0.27  0.00  0.71  0.00  0.00  0.00
  YS02001929YS02001926    1.00   0.00  0.02  0.00  0.98  0.00  0.00  0.00  0.67  0.00
  YS02001920YS02001918    1.00   0.00  0.00  0.00  1.00  0.00  0.00  0.00  0.00  0.00
  YS02001629YS02163301    1.00   0.03  0.00  0.00  0.97  0.00  0.00  0.00  0.00  0.00
  YS02001619YS02001622    1.00   0.02  0.00  0.00  0.98  0.00  0.00  0.00  0.00  0.00
  YS02001622YS02001625    1.00   0.02  0.00  0.00  0.98  0.00  0.00  0.00  0.04  0.00
  YS02001625YS02001629    1.00   0.02  0.01  0.00  0.96  0.00  0.01  0.00  0.00  0.00
  YS02163301YS02001633    1.00   0.00  0.03  0.00  0.97  0.00  0.00  0.00  0.00  0.00
  YS02163601YS02164001    1.00   0.00  0.01  0.00  0.99  0.00  0.00  0.00  0.00  0.00
  YS02164001YS02001641    1.00   0.00  0.01  0.00  0.99  0.00  0.00  0.00  0.05  0.00
  YS02001641YS02001644    1.00   0.00  0.00  0.00  1.00  0.00  0.00  0.00  0.00  0.00
  YS02001647YS02001649    1.00   0.00  0.03  0.00  0.97  0.00  0.00  0.00  0.01  0.00
  YS02006553YS02006556    1.00   0.00  0.00  0.00  1.00  0.00  0.00  0.00  0.03  0.00
  YS02006556YS02006558    1.00   0.00  0.00  0.00  1.00  0.00  0.00  0.00  0.00  0.00
  YSB6556YSB1171          1.00   0.01  0.01  0.00  0.98  0.00  0.00  0.00  0.00  0.00
  YS02001907YS02006553    1.00   0.00  0.00  0.00  0.99  0.00  0.00  0.00  0.00  0.00
  YS02006558YS02006561    1.00   0.03  0.00  0.00  0.29  0.67  0.00  0.00  0.41  0.00
  YS02001633YS02163601    1.00   0.00  0.00  0.00  1.00  0.00  0.00  0.00  0.14  0.00
  YS02001644YS02001647    1.00   0.00  0.03  0.00  0.97  0.00  0.00  0.00  0.00  0.00
  YS02001745YS02001748    1.00   0.00  0.00  0.00  0.93  0.01  0.00  0.07  0.04  0.00
  YS02001748YS02001751    1.00   0.00  0.00  0.00  0.98  0.02  0.00  0.00  0.14  0.00
  YS02001751YS02001754    1.00   0.00  0.00  0.00  0.96  0.00  0.00  0.03  0.02  0.00
  YS02001754YS02001757    1.00   0.00  0.00  0.00  1.00  0.00  0.00  0.00  0.17  0.00
  YS02001882YS02001884    1.00   0.03  0.00  0.00  0.97  0.00  0.00  0.00  0.00  0.00
  YS02001884YS02001887    1.00   0.01  0.01  0.00  0.98  0.00  0.00  0.00  0.00  0.00
  YS02001890YS02001895    1.00   0.00  0.03  0.00  0.97  0.00  0.00  0.00  0.00  0.00
  YS02001895YS02001898    1.00   0.03  0.00  0.00  0.97  0.00  0.01  0.00  0.00  0.00
  YS02001898YS02001901    1.00   0.03  0.00  0.00  0.97  0.00  0.00  0.00  0.01  0.00
  YS02001901YS02001904    1.00   0.03  0.00  0.00  0.97  0.00  0.00  0.00  0.00  0.00
  YS02001904YS02001907    1.00   0.00  0.03  0.00  0.97  0.00  0.00  0.00  0.00  0.00
  YS02001887YS02001890    1.00   0.00  0.00  0.00  0.99  0.00  0.01  0.00  0.00  0.00
  YS02001652YS02001649    1.00   0.00  0.00  0.00  1.00  0.00  0.00  0.00  0.15  0.00
  YS02001655YS02001652    1.00   0.00  0.00  0.00  0.96  0.00  0.00  0.03  0.02  0.00
  YS02001658YS02001655    1.00   0.00  0.02  0.00  0.96  0.02  0.00  0.00  0.07  0.00
  YS02001661YS02001658    1.00   0.02  0.00  0.00  0.92  0.05  0.00  0.00  0.03  0.00
  YS02001664YS02001661    1.00   0.02  0.00  0.00  0.90  0.08  0.00  0.00  0.16  0.00
  YSB1154YSB6556          1.00   0.02  0.00  0.00  0.98  0.00  0.00  0.00  0.01  0.00
  YSB1174YSB1171          1.00   0.01  0.01  0.00  0.98  0.00  0.00  0.00  0.00  0.00
  YSB1171HS02004479       1.00   0.01  0.00  0.00  0.99  0.00  0.00  0.00  0.10  0.00
  HS02004881HS02006253    1.00   0.01  0.00  0.00  0.00  0.00  0.00  0.99  0.00  0.00
  YS02001793JiankangQianchi    1.00   0.00  0.00  0.00  0.40  0.60  0.00  0.00  0.07  0.00
  YS02001757CaochengTiaoxuchi    1.00   0.00  0.04  0.00  0.90  0.06  0.00  0.00  0.00  0.00
  WSF200WS02003060        1.00   0.00  0.06  0.00  0.00  0.94  0.00  0.00  0.57  0.00
  1                       1.00   0.00  0.00  0.00  0.00  1.00  0.00  0.00  0.28  0.00
  
  
  *************************
  Conduit Surcharge Summary
  *************************
  
  ----------------------------------------------------------------------------
                                                           Hours        Hours 
                         --------- Hours Full --------   Above Full   Capacity
  Conduit                Both Ends  Upstream  Dnstream   Normal Flow   Limited
  ----------------------------------------------------------------------------
  WS02006229WS02006228        0.76      0.78      0.76      1.19         0.76
  WS02006256WS02006235        0.18      0.18      6.56      6.50         0.01
  WS02006235WS02006234        0.01      0.01      0.01      0.75         0.01
  WS02006231WS02006230        0.01      0.01      0.01      0.86         0.01
  WS02006230WS02006229        0.91      0.91      0.92      1.99         0.03
  WS02006228WS02006109        0.77      0.84      0.77      1.60         0.77
  WS02006112WS02006115        0.01      0.01      0.45      0.01         0.01
  WS02006111WS02006112        0.01      0.01      1.34      0.01         0.01
  WS02006110WS02006113        0.01      0.01      0.81      0.01         0.01
  WS02006109WS02006110        0.19      0.19      0.84      0.20         0.01
  WS02004405WS02004406        0.01      0.01      0.01      0.37         0.01
  WS02004404WS02004405        0.01      0.01      0.01      2.29         0.01
  WS02003072WS02003073        0.01      0.01      0.01      0.32         0.01
  HS02004876HS02004881        0.01      0.01      0.01      0.70         0.01
  HS02004817HS02004824        0.01      0.01      0.25      0.01         0.01
  HS02004785HS02004788        0.01      0.01      0.01      0.64         0.01
  HS02004480HS02004478        0.01      0.01      0.01      1.10         0.01
  HS02004817HS02004807        0.01      0.01      0.25      0.01         0.01
  YS02001759YS02001757        6.13      6.13      6.20      0.01         0.01
  YS02001762YS02001759        6.12      6.12      6.13      0.01         0.01
  YS02001765YS02001762        6.10      6.10      6.12      0.01         0.01
  YS02001770YS02001767        6.08      6.09      6.08      0.84         0.60
  YS02001774YS02001770        6.07      6.07      6.10      0.01         0.01
  YS02001779YS02001774        5.89      5.89      6.10      0.01         0.01
  YS02001649YS02001757        6.12      6.12      6.20      0.01         0.01
  YS02001767YS02001765        6.08      6.08      6.10      0.01         0.01
  YS02006561YS02001783        1.62      1.62      2.16      0.01         0.01
  YS02001783YS02001784        2.14      2.16      2.15      2.13         1.97
  YS02001784YS02001785        2.06      2.15      2.06      2.97         2.06
  YS02001788YS02001790        1.92      1.92      2.01      0.01         0.01
  YS02001790YS02001791        2.01      2.01      2.03      1.56         1.37
  YS02001791YS02001793        2.03      2.03      2.15      0.01         0.01
  YS02001910YS02001907        1.99      1.99      2.41      0.01         0.01
  YS02001786YS02001788        1.92      2.06      1.92      2.59         1.92
  YS02001915YS02001910        1.78      1.78      1.99      0.01         0.01
  YS02001918YS02001915        1.53      1.53      1.78      0.01         0.01
  YS02001923YS02001920        1.38      1.38      1.57      0.01         0.01
  YS02001926YS02001923        0.01      0.01      0.01      0.01         0.01
  YS02001929YS02001926        0.01      0.01      0.01      0.01         0.01
  YS02001920YS02001918        1.53      1.53      1.57      0.01         0.01
  YS02001629YS02163301        6.06      6.06      6.07      0.01         0.01
  YS02001619YS02001622        5.82      5.82      5.82      0.01         0.01
  YS02001622YS02001625        5.82      5.82      6.02      0.01         0.01
  YS02001625YS02001629        5.82      5.82      6.02      0.01         0.01
  YS02163301YS02001633        6.07      6.07      6.10      0.01         0.01
  YS02163601YS02164001        6.10      6.10      6.12      0.01         0.01
  YS02164001YS02001641        6.10      6.10      6.11      0.01         0.01
  YS02001641YS02001644        6.11      6.11      6.11      2.33         2.50
  YS02001647YS02001649        5.93      5.93      6.12      0.01         0.01
  YS02006553YS02006556        2.19      2.19      2.46      0.01         0.01
  YS02006556YS02006558        2.30      2.30      2.53      0.01         0.01
  YSB6556YSB1171              0.01      0.01      0.38      0.01         0.01
  YS02001907YS02006553        2.98      2.98      3.20      0.01         0.01
  YS02006558YS02006561        1.81      2.15      1.81      2.83         1.81
  YS02001633YS02163601        6.09      6.09      6.12      0.01         0.01
  YS02001644YS02001647        5.93      5.93      6.11      0.01         0.01
  YS02001745YS02001748        0.22      0.22      5.71      0.01         0.01
  YS02001748YS02001751        5.74      5.74      5.80      0.01         0.01
  YS02001751YS02001754        5.80      5.80      5.90      0.01         0.01
  YS02001754YS02001757        5.93      5.93      6.20      0.01         0.01
  YS02001882YS02001884        1.79      1.79      1.82      0.01         0.01
  YS02001884YS02001887        1.88      1.88      1.91      0.01         0.01
  YS02001890YS02001895        1.76      1.76      2.00      0.01         0.01
  YS02001895YS02001898        1.74      1.74      1.76      0.01         0.01
  YS02001898YS02001901        1.77      1.77      1.87      0.01         0.01
  YS02001901YS02001904        1.85      1.85      1.87      0.01         0.01
  YS02001904YS02001907        1.85      1.85      2.50      0.01         0.01
  YS02001887YS02001890        1.94      1.94      1.97      0.77         0.01
  YS02001652YS02001649        5.96      5.96      6.12      0.01         0.01
  YS02001655YS02001652        5.82      5.82      5.92      0.01         0.01
  YS02001658YS02001655        5.73      5.73      5.82      0.01         0.01
  YS02001661YS02001658        0.72      0.72      5.73      0.01         0.01
  YS02001664YS02001661        0.01      0.01      2.08      0.01         0.01
  YS02001793JiankangQianchi        2.12      2.12      2.66      0.01         0.01
  YS02001757CaochengTiaoxuchi        5.50      5.50      6.20      0.01         0.01
  
  
  ***************
  Pumping Summary
  ***************
  
  ---------------------------------------------------------------------------------------------------------
                                                  Min       Avg       Max     Total     Power    % Time Off
                        Percent   Number of      Flow      Flow      Flow    Volume     Usage    Pump Curve
  Pump                 Utilized   Start-Ups       LPS       LPS       LPS  10^6 ltr     Kw-hr    Low   High
  ---------------------------------------------------------------------------------------------------------
  CC-Pump-1                0.00           0      0.00      0.00      0.00     0.000      0.00    0.0    0.0
  CC-Pump-2               79.63           1      0.00    199.25    200.00     4.554      4.59    0.0    8.2
  JK-Pump-1                0.00           0      0.00      0.00      0.00     0.000      0.00    0.0    0.0
  JK-Pump-2              100.00           1      0.00    423.70    683.00    10.272    139.66    0.0   98.2
  XR-Pump-1              100.00           1      0.00     95.00     95.00     2.736     23.31    0.0    0.0
  XR-Pump-2              100.00           1      0.00     95.00     95.00     2.736     23.31    0.0    0.0
  XR-Pump-3              100.00           1      0.00     95.00     95.00     2.736     23.31    0.0    0.0
  XR-Pump-4                0.00           0      0.00      0.00      0.00     0.000      0.00    0.0    0.0
  
  
  ***************************
  Link Pollutant Load Summary
  ***************************
  
  ------------------------------------------------------------------------------------------
                                 COD            SS            TN            TP         NH4-N
  Link                            kg            kg            kg            kg            kg
  ------------------------------------------------------------------------------------------
  WS02003066WSF200           440.217       855.555        12.422         1.154         6.644
  WS02006287WS02006284       477.505       935.605        13.502         1.257         7.228
  WS02006284WS02006280       477.983       936.356        13.550         1.263         7.258
  WS02006280WS02006229       477.961       936.319        13.548         1.263         7.257
  WS02006229WS02006228       424.433       823.114        12.377         1.165         6.669
  WS02006256WS02006235       349.812       672.393         6.961         0.505         3.414
  WS02006253WS02006251        83.270       169.049         1.726         0.124         0.839
  WS02006252WS02006251       450.916       857.124         8.758         0.605         4.230
  WS02006251WS02006249        81.422       156.506         1.602         0.112         0.776
  WS02006249WS02006248        81.220       156.138         1.597         0.111         0.773
  WS02006248WS02006247        81.117       155.943         1.595         0.111         0.772
  WS02006247WS02006245        80.953       155.639         1.591         0.111         0.770
  WS02006245WS02006243        80.747       155.253         1.587         0.111         0.768
  WS02006243WS02006242        80.552       154.885         1.583         0.110         0.766
  WS02006242WS02006240        80.233       154.292         1.576         0.110         0.763
  WS02006240WS02006239        80.066       153.976         1.573         0.110         0.761
  WS02006239WS02006238        79.789       153.450         1.567         0.109         0.758
  WS02006238WS02006235        79.825       153.531         1.568         0.109         0.758
  WS02006235WS02006234        98.563       197.466         2.063         0.160         1.020
  WS02006234WS02006232        99.335       198.996         2.081         0.162         1.029
  WS02006232WS02006231       100.470       201.238         2.107         0.164         1.042
  WS02006231WS02006230       101.282       202.835         2.125         0.165         1.051
  WS02006230WS02006229       103.541       207.258         2.179         0.170         1.078
  WS02006228WS02006109       423.707       821.938        12.309         1.156         6.627
  WS02006116WS02004401       447.640       867.446        13.092         1.237         7.061
  WS02006115WS02006116       448.329       868.549        13.161         1.246         7.104
  WS02006113WS02006111       430.703       833.133        12.987         1.241         7.050
  WS02006112WS02006115       448.930       869.514        13.214         1.253         7.138
  WS02006111WS02006112       430.468       832.774        12.959         1.238         7.033
  WS02006110WS02006113       430.871       833.409        13.001         1.243         7.059
  WS02006109WS02006110       431.605       834.575        13.070         1.252         7.103
  WS02004411WS02004412       441.857       858.038        12.587         1.175         6.747
  WS02004401WS02004402       446.786       866.067        13.017         1.228         7.014
  WS02004413WS02003067       440.736       856.439        12.461         1.159         6.668
  WS02004412WS02004413       441.190       856.973        12.524         1.167         6.709
  WS02004410WS02004411       442.314       858.778        12.629         1.180         6.774
  WS02004409WS02004410       442.631       859.266        12.662         1.185         6.794
  WS02004407WS02004409       442.939       859.785        12.689         1.188         6.811
  WS02004406WS02004407       443.095       860.070        12.699         1.189         6.817
  WS02004405WS02004406       444.714       862.643        12.849         1.208         6.911
  WS02004404WS02004405       445.690       864.286        12.928         1.217         6.959
  WS02004403WS02004404       445.120       863.379        12.869         1.210         6.922
  WS02004402WS02004403       445.890       864.613        12.937         1.218         6.965
  WS02004139WS02001211        90.081       157.757         6.129         0.734         3.739
  WS02004138WS02004139      1132.658      1918.893        86.050        10.403        52.755
  WS02003067WS02003066       440.197       855.493        12.424         1.155         6.646
  WS02001213WS02003059        47.317        90.147         1.874         0.200         1.074
  WS02001212WS02001213        45.193        86.714         1.685         0.177         0.956
  WS02001211WS02001212        45.129        86.095         1.766         0.188         1.010
  WS02003072WS02003073       513.195       957.140        22.215         2.414        12.867
  WS02003069WS02003072       514.249       958.616        22.345         2.431        12.950
  WS02003060WS02003069       512.522       955.864        22.178         2.410        12.845
  WS02003059WS02003060        52.140        99.761         2.000         0.211         1.140
  HS02004901HS02004770        21.377        42.492         0.408         0.031         0.193
  HS02004876HS02004881        71.019       144.143         1.510         0.109         0.736
  HS02004870HS02004876        54.070       109.680         1.194         0.087         0.585
  HS02004842HS02004848        10.177        20.041         0.209         0.014         0.097
  HS02004837HS02004842        14.803        27.392         0.678         0.074         0.392
  HS02004830HS02004837        85.678       154.339         5.017         0.585         3.021
  HS02004824HS02004830        86.483       155.658         5.091         0.594         3.067
  HS02004817HS02004824       126.537       238.257         5.903         0.646         3.462
  HS02004770HS02004777        81.422       164.074         1.666         0.115         0.776
  HS02004799HS02004480       258.815       509.747         6.179         0.523         3.126
  HS02004792HS02004799       235.999       462.540         5.791         0.501         2.947
  HS02004788HS02004792       127.396       250.368         3.582         0.323         1.878
  HS02004785HS02004788        82.885       166.407         1.819         0.135         0.872
  HS02004777HS02004785        82.201       165.309         1.755         0.127         0.833
  HS02004480HS02004478       323.289       639.346         7.309         0.607         3.666
  HS02004479HS02004480        68.099       135.431         1.448         0.123         0.738
  HS02004862HS02004870        41.315        82.800         0.941         0.072         0.463
  HS02004848HS02004852        17.627        35.176         0.356         0.025         0.166
  HS02004856HS02004862        28.524        57.823         0.568         0.038         0.268
  HS02004852HS02004856        17.635        35.187         0.357         0.025         0.166
  HS02004802HS02004478       155.004       297.522         6.254         0.658         3.599
  HS02004478WS02006287       477.672       935.863        13.519         1.259         7.238
  HS02004817HS02004807       125.322       236.316         5.784         0.631         3.387
  HS02004807HS02004802       155.249       297.917         6.287         0.662         3.620
  YS02001759YS02001757       481.348       914.246         9.419         0.661         4.594
  YS02001762YS02001759       245.189       463.371         5.022         0.355         2.471
  YS02001765YS02001762       246.766       467.474         5.066         0.359         2.495
  YS02001770YS02001767       251.251       479.407         4.982         0.341         2.424
  YS02001774YS02001770       500.849       996.555         9.618         0.650         4.656
  YS02001779YS02001774       500.123       995.124         9.689         0.661         4.706
  YS02001649YS02001757       472.194       891.383         9.277         0.640         4.463
  YS02001767YS02001765       249.131       473.153         5.119         0.363         2.522
  YS02006561YS02001783      1287.879      2438.675        26.668         1.971        13.203
  YS02001783YS02001784      1287.731      2438.436        26.663         1.970        13.200
  YS02001784YS02001785      1295.235      2450.489        27.390         2.061        13.655
  YS02001788YS02001790      1295.828      2451.472        27.462         2.071        13.701
  YS02001790YS02001791      1296.917      2453.338        27.563         2.083        13.764
  YS02001791YS02001793      1296.807      2453.137        27.558         2.083        13.761
  YS02001910YS02001907       628.634      1199.804        13.969         1.025         7.028
  YS02001786YS02001788      1295.480      2450.945        27.419         2.065        13.673
  YS02001915YS02001910       628.701      1199.912        13.923         1.018         6.997
  YS02001918YS02001915       304.018       556.527         7.342         0.627         3.840
  YS02001923YS02001920       280.963       518.354         5.310         0.376         2.576
  YS02001926YS02001923       278.982       514.924         5.220         0.367         2.524
  YS02001929YS02001926       278.169       513.531         5.170         0.361         2.493
  YS02001920YS02001918       301.613       551.563         7.269         0.621         3.800
  YS02001629YS02163301       138.696       255.597         2.793         0.190         1.320
  YS02001619YS02001622       290.821       550.308         5.850         0.390         2.750
  YS02001622YS02001625       289.690       548.518         5.822         0.389         2.737
  YS02001625YS02001629       135.386       248.393         2.745         0.186         1.294
  YS02163301YS02001633       142.337       263.015         2.851         0.196         1.349
  YS02163601YS02164001       549.927      1020.527        10.602         0.768         5.100
  YS02164001YS02001641       549.524      1019.852        10.584         0.766         5.089
  YS02001641YS02001644       549.931      1020.477        10.586         0.766         5.089
  YS02001647YS02001649       623.650      1185.885        12.243         0.857         5.851
  YS02006553YS02006556       750.542      1392.405        16.157         1.226         8.110
  YS02006556YS02006558       750.521      1392.354        16.125         1.222         8.088
  YSB6556YSB1171              39.637        79.024         0.784         0.064         0.392
  YS02001907YS02006553       750.614      1392.567        16.171         1.228         8.119
  YS02006558YS02006561      1287.881      2438.671        26.668         1.970        13.203
  YS02001633YS02163601       550.576      1021.523        10.581         0.764         5.082
  YS02001644YS02001647       631.010      1199.828        12.369         0.867         5.911
  YS02001745YS02001748       396.102       768.672         7.858         0.500         3.789
  YS02001748YS02001751       395.737       767.882         7.930         0.511         3.839
  YS02001751YS02001754       394.796       766.334         7.913         0.511         3.832
  YS02001754YS02001757       395.633       767.602         8.081         0.534         3.941
  YS02001882YS02001884         3.909         6.847         0.077         0.006         0.038
  YS02001884YS02001887         6.778        12.076         0.132         0.010         0.065
  YS02001890YS02001895       614.179      1179.014        11.414         0.864         5.574
  YS02001895YS02001898       614.054      1178.881        11.408         0.864         5.571
  YS02001898YS02001901       613.885      1178.539        11.405         0.864         5.570
  YS02001901YS02001904       613.638      1178.198        11.408         0.865         5.573
  YS02001904YS02001907       613.918      1178.586        11.464         0.872         5.608
  YS02001887YS02001890       746.498      1446.585        13.808         1.049         6.743
  YS02001652YS02001649       348.418       669.472         6.883         0.500         3.240
  YS02001655YS02001652       348.812       670.134         6.894         0.501         3.246
  YS02001658YS02001655       348.138       669.100         6.801         0.489         3.186
  YS02001661YS02001658       348.469       669.691         6.808         0.489         3.189
  YS02001664YS02001661       367.378       699.924         7.260         0.520         3.396
  YSB1154YSB6556              39.241        78.419         0.736         0.058         0.362
  YSB1174YSB1171              26.971        54.041         0.531         0.042         0.263
  YSB1171HS02004479           68.054       135.359         1.451         0.123         0.740
  HS02004881HS02006253        79.543       161.660         1.672         0.120         0.814
  YS02001793JiankangQianchi      1296.860      2453.231        27.557         2.082        13.760
  YS02001757CaochengTiaoxuchi       765.113      1440.446        15.172         1.047         7.350
  WSF200WS02003060           440.048       855.228        12.414         1.154         6.639
  1                          524.995       975.498        23.424         2.567        13.625
  CC-Pump-1                    0.000         0.000         0.000         0.000         0.000
  CC-Pump-2                  450.952       857.192         8.759         0.605         4.231
  JK-Pump-1                    0.000         0.000         0.000         0.000         0.000
  JK-Pump-2                  861.502      1655.158        17.158         1.245         8.416
  XR-Pump-1                  377.934       640.265        28.714         3.472        17.604
  XR-Pump-2                  377.934       640.265        28.714         3.472        17.604
  XR-Pump-3                  377.934       640.265        28.714         3.472        17.604
  XR-Pump-4                    0.000         0.000         0.000         0.000         0.000
  3                          453.128       870.196         8.932         0.624         4.326
  5                          481.965       937.040         9.636         0.705         4.721
  6                         1224.554      2079.577        92.350        11.159        56.600
  

  Analysis begun on:  Thu Jul  8 15:14:55 2021
  Analysis ended on:  Thu Jul  8 15:14:59 2021
  Total elapsed time: 00:00:04