
  EPA STORM WATER MANAGEMENT MODEL - VERSION 5.1 (Build 5.3.0.dev0)
  --------------------------------------------------------------

  WARNING 04: minimum elevation drop used for Conduit WS02004404WS02004405
  WARNING 03: negative offset ignored for Link YS02001904YS02001907
  
  *********************************************************
  NOTE: The summary statistics displayed in this report are
  based on results found at every computational time step,  
  not just on results from each reporting time step.
  *********************************************************
  
  ****************
  Analysis Options
  ****************
  Flow Units ............... LPS
  Process Models:
    Rainfall/Runoff ........ YES
    RDII ................... NO
    Snowmelt ............... NO
    Groundwater ............ NO
    Flow Routing ........... YES
    Ponding Allowed ........ NO
    Water Quality .......... NO
  Infiltration Method ...... HORTON
  Flow Routing Method ...... DYNWAVE
  Surcharge Method ......... EXTRAN
  Starting Date ............ 08/28/2015 08:00:00
  Ending Date .............. 08/28/2015 15:50:00
  Antecedent Dry Days ...... 8.0
  Report Time Step ......... 00:01:00
  Wet Time Step ............ 00:01:00
  Dry Time Step ............ 00:01:00
  Routing Time Step ........ 5.00 sec
  Variable Time Step ....... YES
  Maximum Trials ........... 8
  Number of Threads ........ 4
  Head Tolerance ........... 0.001500 m
  
  
  **************************        Volume         Depth
  Runoff Quantity Continuity     hectare-m            mm
  **************************     ---------       -------
  Total Precipitation ......         3.868         8.469
  Evaporation Loss .........         0.000         0.000
  Infiltration Loss ........         0.985         2.157
  Surface Runoff ...........         1.916         4.194
  Final Storage ............         0.968         2.119
  Continuity Error (%) .....        -0.017
  
  
  **************************        Volume        Volume
  Flow Routing Continuity        hectare-m      10^6 ltr
  **************************     ---------     ---------
  Dry Weather Inflow .......         0.616         6.165
  Wet Weather Inflow .......         1.915        19.148
  Groundwater Inflow .......         0.000         0.000
  RDII Inflow ..............         0.000         0.000
  External Inflow ..........         0.102         1.024
  External Outflow .........         1.574        15.737
  Flooding Loss ............         0.565         5.646
  Evaporation Loss .........         0.000         0.000
  Exfiltration Loss ........         0.000         0.000
  Initial Stored Volume ....         0.076         0.761
  Final Stored Volume ......         0.607         6.066
  Continuity Error (%) .....        -1.297
  
  
  *************************
  Highest Continuity Errors
  *************************
  Node HS02004842 (20.90%)
  Node YS02001774 (16.52%)
  Node YS02001884 (13.30%)
  Node JK-storage (-5.94%)
  Node YSB1171 (4.65%)
  
  
  ***************************
  Time-Step Critical Elements
  ***************************
  Link 3 (72.19%)
  Link WS02006252WS02006251 (10.20%)
  Link YS02001793JiankangQianchi (9.34%)
  Link WS02006280WS02006229 (1.76%)
  Link WS02006238WS02006235 (1.06%)
  
  
  ********************************
  Highest Flow Instability Indexes
  ********************************
  Link WS02006113WS02006111 (49)
  Link YS02001619YS02001622 (35)
  Link YS02001629YS02163301 (34)
  Link YS02163301YS02001633 (33)
  Link YS02163601YS02164001 (33)
  
  
  *************************
  Routing Time Step Summary
  *************************
  Minimum Time Step           :     0.30 sec
  Average Time Step           :     1.10 sec
  Maximum Time Step           :     5.00 sec
  Percent in Steady State     :     0.00
  Average Iterations per Step :     4.44
  Percent Not Converging      :    22.18
  
  
  ***************************
  Subcatchment Runoff Summary
  ***************************
  
  ------------------------------------------------------------------------------------------------------------------------------
                            Total      Total      Total      Total     Imperv       Perv      Total       Total     Peak  Runoff
                           Precip      Runon       Evap      Infil     Runoff     Runoff     Runoff      Runoff   Runoff   Coeff
  Subcatchment                 mm         mm         mm         mm         mm         mm         mm    10^6 ltr      LPS
  ------------------------------------------------------------------------------------------------------------------------------
  sub0                       8.47       0.00       0.00       0.59       6.61       0.00       6.61        0.01     1.03   0.781
  sub1                       8.47       0.00       0.00       0.93       6.28       0.00       6.28        0.04     7.43   0.741
  sub2                       8.47       0.00       0.00       3.13       4.43       0.00       4.43        0.04     7.08   0.523
  sub3                       8.47       0.00       0.00       3.13       4.39       0.00       4.39        0.10    15.91   0.518
  sub4                       8.47       0.00       0.00       0.93       6.13       0.00       6.13        0.13    19.23   0.724
  sub5                       8.47       0.00       0.00       0.59       6.56       0.00       6.56        0.07    13.22   0.775
  sub7                       8.47       0.00       0.00       0.76       6.45       0.00       6.45        0.02     4.04   0.762
  sub8                       8.47       0.00       0.00       0.76       6.44       0.00       6.44        0.04     7.54   0.761
  sub9                       8.47       0.00       0.00       0.76       6.44       0.00       6.44        0.03     5.65   0.760
  sub10                      8.47       0.00       0.00       0.68       6.50       0.00       6.50        0.07    12.87   0.767
  sub11                      8.47       0.00       0.00       0.68       6.52       0.00       6.52        0.08    13.93   0.769
  sub12                      8.47       0.00       0.00       1.10       6.18       0.00       6.18        0.05    10.23   0.730
  sub14                      8.47       0.00       0.00       0.76       6.44       0.00       6.44        0.06    11.15   0.760
  sub15                      8.47       0.00       0.00       2.54       4.95       0.00       4.95        0.09    15.40   0.584
  sub16                      8.47       0.00       0.00       2.79       4.76       0.00       4.76        0.05     9.37   0.561
  sub17                      8.47       0.00       0.00       2.71       4.82       0.00       4.82        0.04     7.75   0.570
  sub22                      8.47       0.00       0.00       3.64       4.04       0.00       4.04        0.26    47.08   0.477
  sub23                      8.47       0.00       0.00       3.13       4.46       0.00       4.46        0.21    39.46   0.527
  sub60                      8.47       0.00       0.00       1.02       4.75       0.00       4.75        1.44   149.28   0.561
  sub61                      8.47       0.00       0.00       1.44       4.95       0.00       4.95        1.53   180.35   0.585
  sub62                      8.47       0.00       0.00       0.68       5.35       0.00       5.35        1.64   187.08   0.631
  sub63                      8.47       0.00       0.00       2.46       4.37       0.00       4.37        1.32   164.01   0.516
  sub64                      8.47       0.00       0.00       1.27       4.55       0.00       4.55        1.38   141.99   0.537
  sub65                      8.47       0.00       0.00       1.10       4.62       0.00       4.62        1.42   144.28   0.545
  sub66                      8.47       0.00       0.00       2.46       3.94       0.00       3.94        1.21   129.20   0.465
  sub67                      8.47       0.00       0.00       0.68       5.75       0.00       5.75        1.78   226.25   0.679
  sub68                      8.47       0.00       0.00       1.19       5.24       0.00       5.24        1.61   196.27   0.618
  sub69                      8.47       0.00       0.00       1.27       5.53       0.00       5.53        1.29   176.57   0.653
  sub70                      8.47       5.64       0.00       4.80       7.11       0.00       7.11        1.63   167.69   0.504
  sub71                      8.47       0.00       0.00       0.68       5.16       0.00       5.16        1.22   132.38   0.610
  sub72                      8.47       0.00       0.00       0.59       3.87       0.00       3.87        0.79    64.98   0.457
  sub73                      8.47       6.92       0.00       5.23       7.51       0.00       7.51        1.76   149.38   0.488
  sub74                      8.47       0.00       0.00       6.35       1.66       0.00       1.66        0.66    93.55   0.196
  
  
  ******************
  Node Depth Summary
  ******************
  
  ---------------------------------------------------------------------------------
                                 Average  Maximum  Maximum  Time of Max    Reported
                                   Depth    Depth      HGL   Occurrence   Max Depth
  Node                 Type       Meters   Meters   Meters  days hr:min      Meters
  ---------------------------------------------------------------------------------
  WS02001211           JUNCTION     0.63     0.71     5.54     0  03:59        0.71
  WS02001212           JUNCTION     0.36     0.42     5.49     0  03:58        0.42
  WS02001213           JUNCTION     0.59     0.68     5.45     0  02:32        0.68
  WS02003069           JUNCTION     0.41     0.54     5.12     0  02:33        0.54
  WS02003072           JUNCTION     0.48     0.60     4.97     0  02:34        0.60
  WS02003073           JUNCTION     0.28     0.37     4.43     0  02:35        0.37
  WS02003060           JUNCTION     0.36     0.47     5.41     0  02:33        0.47
  WS02003066           JUNCTION     0.22     0.31     5.86     0  02:27        0.31
  WS02003059           JUNCTION     0.65     0.75     5.43     0  02:32        0.75
  WS02003067           JUNCTION     0.53     0.71     6.03     0  02:26        0.71
  WS02004401           JUNCTION     0.64     0.91     6.91     0  02:24        0.91
  WS02004402           JUNCTION     0.67     0.94     6.90     0  02:24        0.93
  WS02004403           JUNCTION     0.69     0.96     6.89     0  02:24        0.95
  WS02004404           JUNCTION     0.77     1.20     7.05     0  02:23        1.09
  WS02004406           JUNCTION     0.76     0.98     6.81     0  02:25        0.98
  WS02004409           JUNCTION     0.45     0.69     6.46     0  02:26        0.69
  WS02004410           JUNCTION     0.47     0.70     6.42     0  02:26        0.70
  WS02004411           JUNCTION     0.48     0.71     6.39     0  02:26        0.71
  WS02004412           JUNCTION     0.50     0.72     6.36     0  02:26        0.72
  WS02004413           JUNCTION     0.65     0.87     6.34     0  02:26        0.87
  WS02004405           JUNCTION     0.75     1.01     6.86     0  02:25        0.99
  WS02006109           JUNCTION     0.71     0.99     7.61     0  02:21        0.99
  WS02006110           JUNCTION     0.71     0.94     7.52     0  02:22        0.93
  WS02006111           JUNCTION     0.20     0.29     7.00     0  02:22        0.29
  WS02006112           JUNCTION     0.81     1.17     7.06     0  02:20        1.14
  WS02006113           JUNCTION     0.31     0.46     7.36     0  02:21        0.46
  WS02006115           JUNCTION     0.53     0.81     6.95     0  02:23        0.81
  WS02006116           JUNCTION     0.61     0.89     6.93     0  02:23        0.89
  WS02006230           JUNCTION     0.66     1.04     7.79     0  02:21        1.04
  WS02006231           JUNCTION     0.43     0.72     7.84     0  02:21        0.72
  WS02006232           JUNCTION     0.55     0.85     7.89     0  02:22        0.85
  WS02006234           JUNCTION     0.46     0.80     7.95     0  02:22        0.79
  WS02006235           JUNCTION     0.49     0.82     7.99     0  02:21        0.82
  WS02006238           JUNCTION     0.51     0.85     7.99     0  02:20        0.85
  WS02006240           JUNCTION     0.39     0.77     8.06     0  02:20        0.77
  WS02006242           JUNCTION     0.43     0.85     8.12     0  03:01        0.83
  WS02006243           JUNCTION     0.29     0.72     8.14     0  02:20        0.72
  WS02006245           JUNCTION     0.25     0.69     8.17     0  02:20        0.69
  WS02006247           JUNCTION     0.26     0.69     8.19     0  02:20        0.69
  WS02006248           JUNCTION     0.22     0.62     8.21     0  02:20        0.62
  WS02006249           JUNCTION     0.25     0.63     8.23     0  02:20        0.63
  WS02006239           JUNCTION     0.46     0.82     8.03     0  02:20        0.82
  WS02006251           JUNCTION     0.23     0.67     8.34     0  02:20        0.67
  WS02006252           JUNCTION     0.20     0.59     8.83     0  02:59        0.58
  WS02006253           JUNCTION     0.26     0.69     8.34     0  02:20        0.69
  WS02006256           JUNCTION     1.04     1.21     8.15     0  02:19        1.21
  WS02004138           JUNCTION     0.13     0.17     7.42     0  05:20        0.17
  WS02004407           JUNCTION     0.20     0.31     6.62     0  02:25        0.31
  WS02006228           JUNCTION     0.71     1.03     7.68     0  02:21        1.03
  WS02006229           JUNCTION     0.68     1.03     7.72     0  02:21        1.03
  WS02006280           JUNCTION     0.08     0.14     8.41     0  02:27        0.14
  WS02006284           JUNCTION     0.38     0.48     8.88     0  02:27        0.48
  WS02006287           JUNCTION     0.11     0.21     9.16     0  02:27        0.21
  WSF200               JUNCTION     0.20     0.32     5.55     0  02:33        0.32
  HS02004901           JUNCTION     0.14     0.22    10.04     0  02:25        0.22
  HS02004881           JUNCTION     0.01     0.02     9.05     0  02:26        0.02
  HS02004876           JUNCTION     0.05     0.10     9.13     0  02:25        0.10
  HS02004870           JUNCTION     0.02     0.04     9.33     0  02:26        0.04
  HS02004862           JUNCTION     0.02     0.05     9.43     0  02:27        0.05
  HS02004856           JUNCTION     0.08     0.11     9.53     0  02:26        0.11
  HS02004852           JUNCTION     0.01     0.03     9.54     0  02:27        0.03
  HS02004848           JUNCTION     0.01     0.03     9.63     0  02:26        0.03
  HS02004842           JUNCTION     0.34     0.36     9.63     0  02:26        0.36
  HS02004837           JUNCTION     0.03     0.05     9.63     0  02:26        0.05
  HS02004830           JUNCTION     0.04     0.06     9.53     0  02:26        0.06
  HS02004824           JUNCTION     0.03     0.04     9.45     0  02:27        0.04
  HS02004817           JUNCTION     0.45     0.53     9.37     0  02:27        0.53
  HS02004807           JUNCTION     0.13     0.20     9.37     0  02:27        0.20
  HS02004802           JUNCTION     0.17     0.24     9.37     0  02:27        0.24
  HS02004799           JUNCTION     0.13     0.25     9.46     0  02:25        0.25
  HS02004792           JUNCTION     0.04     0.09     9.62     0  02:25        0.09
  HS02004788           JUNCTION     0.03     0.07     9.97     0  02:26        0.07
  HS02004785           JUNCTION     0.06     0.13    10.03     0  02:25        0.13
  HS02004777           JUNCTION     0.16     0.24    10.04     0  02:25        0.24
  HS02004770           JUNCTION     0.13     0.21    10.04     0  02:25        0.21
  HS02004480           JUNCTION     0.09     0.19     9.43     0  02:26        0.19
  HS02004479           JUNCTION     0.13     0.23     9.43     0  02:25        0.23
  HS02004478           JUNCTION     0.07     0.12     9.35     0  02:26        0.12
  YS02001745           JUNCTION     0.54     0.86     8.38     0  04:11        0.86
  YS02001748           JUNCTION     0.90     1.31     8.39     0  04:07        1.30
  YS02001751           JUNCTION     1.08     2.01     8.89     0  03:02        1.51
  YS02001754           JUNCTION     1.32     1.90     8.51     0  02:53        1.78
  YS02001762           JUNCTION     1.52     2.02     8.42     0  04:09        2.00
  YS02001765           JUNCTION     1.48     1.97     8.42     0  04:09        1.95
  YS02001767           JUNCTION     1.44     1.93     8.41     0  03:59        1.90
  YS02001770           JUNCTION     1.44     1.90     8.40     0  03:59        1.89
  YS02001774           JUNCTION     1.51     1.97     8.39     0  04:09        1.95
  YS02001779           JUNCTION     1.25     1.68     8.37     0  03:50        1.68
  YS02001882           JUNCTION     0.40     0.64     7.36     0  03:01        0.64
  YS02001884           JUNCTION     0.50     0.73     7.35     0  03:02        0.73
  YS02001759           JUNCTION     1.56     2.06     8.42     0  03:59        2.04
  YS02001887           JUNCTION     0.58     0.81     7.35     0  03:03        0.81
  YS02001890           JUNCTION     0.61     0.84     7.35     0  03:02        0.84
  YS02001898           JUNCTION     0.37     0.60     7.34     0  03:02        0.59
  YS02001901           JUNCTION     0.49     0.72     7.33     0  03:02        0.72
  YS02001904           JUNCTION     0.47     0.70     7.33     0  03:02        0.69
  YS02001907           JUNCTION     0.80     1.08     7.37     0  03:03        1.08
  YS02001910           JUNCTION     0.59     0.83     7.33     0  03:01        0.82
  YS02001915           JUNCTION     0.38     0.61     7.33     0  03:01        0.61
  YS02001918           JUNCTION     0.12     0.26     7.33     0  03:02        0.26
  YS02001619           JUNCTION     1.04     1.61     8.54     0  03:17        1.47
  YS02001629           JUNCTION     1.39     1.85     8.40     0  03:21        1.82
  YS02001641           JUNCTION     1.50     1.94     8.37     0  03:52        1.92
  YS02001644           JUNCTION     1.50     1.92     8.35     0  03:47        1.92
  YS02001652           JUNCTION     1.34     2.16     8.76     0  02:56        1.83
  YS02001655           JUNCTION     1.11     2.20     9.05     0  02:55        1.61
  YS02001920           JUNCTION     0.22     0.33     7.34     0  03:03        0.33
  YS02001923           JUNCTION     0.09     0.12     7.38     0  03:02        0.12
  YS02001926           JUNCTION     0.18     0.23     7.67     0  03:01        0.23
  YS02001929           JUNCTION     0.09     0.12     7.81     0  03:01        0.12
  YS02001658           JUNCTION     0.84     2.30     9.44     0  03:14        1.36
  YS02001661           JUNCTION     0.64     1.85     9.25     0  03:52        1.14
  YS02001664           JUNCTION     0.27     0.56     8.49     0  03:54        0.56
  YS02001622           JUNCTION     1.07     1.62     8.52     0  03:20        1.49
  YS02001633           JUNCTION     1.48     1.94     8.40     0  03:51        1.91
  YS02001649           JUNCTION     1.53     2.05     8.44     0  03:17        2.00
  YS02001757           JUNCTION     1.66     2.16     8.42     0  04:07        2.13
  YS02001895           JUNCTION     0.37     0.60     7.34     0  03:02        0.59
  YS02001625           JUNCTION     1.35     1.78     8.38     0  03:20        1.78
  YS02163301           JUNCTION     1.42     1.89     8.41     0  03:25        1.85
  YS02163601           JUNCTION     1.54     1.99     8.39     0  03:51        1.96
  YS02164001           JUNCTION     1.48     1.92     8.38     0  03:51        1.90
  YS02001647           JUNCTION     1.33     1.80     8.41     0  03:57        1.76
  YSB1154              JUNCTION     0.27     0.38     9.43     0  02:26        0.38
  YSB6556              JUNCTION     0.16     0.26     9.43     0  02:26        0.26
  YSB1174              JUNCTION     0.22     0.32     9.43     0  02:26        0.32
  YSB1171              JUNCTION     0.42     0.53     9.43     0  02:25        0.53
  YS02006553           JUNCTION     0.80     1.09     7.38     0  03:02        1.06
  YS02006561           JUNCTION     0.20     0.36     7.02     0  03:04        0.35
  YS02006556           JUNCTION     0.77     1.02     7.33     0  02:59        1.01
  YS02006558           JUNCTION     0.82     1.06     7.33     0  02:59        1.06
  YS02001783           JUNCTION     0.36     0.61     6.75     0  03:04        0.60
  YS02001784           JUNCTION     0.38     0.62     6.69     0  03:04        0.61
  YS02001786           JUNCTION     0.32     0.52     6.55     0  03:04        0.52
  YS02001788           JUNCTION     0.24     0.41     6.39     0  03:05        0.41
  YS02001790           JUNCTION     0.30     0.56     6.20     0  03:35        0.56
  YS02001791           JUNCTION     0.21     0.74     6.21     0  03:34        0.70
  YS02001793           JUNCTION     0.33     3.23     8.06     0  03:14        1.32
  WS02004139           JUNCTION     0.56     0.65     5.56     0  03:59        0.65
  WSC                  OUTFALL      0.28     0.36     1.03     0  02:35        0.36
  3                    OUTFALL      0.11     0.21     6.21     0  02:19        0.21
  4                    OUTFALL      0.02     0.13     7.13     0  02:20        0.13
  5                    OUTFALL      0.00     0.00     5.00     0  00:00        0.00
  JK-storage           STORAGE      2.28     5.36     6.16     0  03:34        5.36
  CC-storage           STORAGE      0.86     1.38     8.38     0  04:06        1.38
  XR-storage           STORAGE      7.37     7.72     5.72     0  02:11        7.72
  
  
  *******************
  Node Inflow Summary
  *******************
  
  -------------------------------------------------------------------------------------------------
                                  Maximum  Maximum                  Lateral       Total        Flow
                                  Lateral    Total  Time of Max      Inflow      Inflow     Balance
                                   Inflow   Inflow   Occurrence      Volume      Volume       Error
  Node                 Type           LPS      LPS  days hr:min    10^6 ltr    10^6 ltr     Percent
  -------------------------------------------------------------------------------------------------
  WS02001211           JUNCTION      7.35   294.17     0  04:03       0.207        6.48       0.561
  WS02001212           JUNCTION      0.00   295.68     0  04:03           0        6.45       0.287
  WS02001213           JUNCTION      0.00   296.88     0  04:02           0        6.44       0.345
  WS02003069           JUNCTION      0.32   816.27     0  02:33     0.00902        12.2       0.185
  WS02003072           JUNCTION      0.00   815.43     0  02:34           0        12.2       0.240
  WS02003073           JUNCTION      1.82   817.16     0  02:34      0.0514        12.2       0.260
  WS02003060           JUNCTION     16.53   815.76     0  02:33       0.466        12.3       0.178
  WS02003066           JUNCTION      0.00   573.80     0  02:27           0        5.43       0.048
  WS02003059           JUNCTION      0.00   299.88     0  04:01           0        6.43       0.563
  WS02003067           JUNCTION      0.00   573.15     0  02:27           0        5.44       0.112
  WS02004401           JUNCTION      0.00   584.18     0  02:25           0        5.59       0.260
  WS02004402           JUNCTION      0.00   593.45     0  02:24           0        5.57       0.256
  WS02004403           JUNCTION      0.00   588.78     0  02:24           0        5.56       0.241
  WS02004404           JUNCTION      0.16   609.13     0  02:23     0.00457        5.55       0.288
  WS02004406           JUNCTION      0.00   604.98     0  02:24           0        5.53       0.460
  WS02004409           JUNCTION      0.00   579.94     0  02:25           0         5.5       0.139
  WS02004410           JUNCTION      0.00   577.63     0  02:25           0        5.49       0.175
  WS02004411           JUNCTION      0.00   576.35     0  02:25           0        5.48       0.193
  WS02004412           JUNCTION      0.00   575.19     0  02:26           0        5.47       0.227
  WS02004413           JUNCTION      0.00   573.82     0  02:26           0        5.46       0.370
  WS02004405           JUNCTION      0.04   610.45     0  02:23     0.00107        5.54       0.168
  WS02006109           JUNCTION      1.23   554.44     0  02:21      0.0347        5.63       0.274
  WS02006110           JUNCTION      0.00   554.38     0  02:21           0        5.61       0.250
  WS02006111           JUNCTION      0.00   576.77     0  02:21           0        5.59       0.035
  WS02006112           JUNCTION      7.75   567.34     0  02:22      0.0414        5.63       0.356
  WS02006113           JUNCTION      0.00   555.17     0  02:21           0         5.6       0.083
  WS02006115           JUNCTION      0.00   580.09     0  02:22           0        5.61       0.243
  WS02006116           JUNCTION      0.00   576.22     0  02:25           0         5.6       0.182
  WS02006230           JUNCTION     10.28   388.65     0  03:43        0.29         4.3       0.165
  WS02006231           JUNCTION      0.00   383.29     0  03:42           0        4.02       0.107
  WS02006232           JUNCTION      0.00   383.52     0  03:42           0        4.03       0.250
  WS02006234           JUNCTION      0.00   387.90     0  03:42           0        4.03       0.079
  WS02006235           JUNCTION      0.00   390.60     0  03:41           0        4.06       0.132
  WS02006238           JUNCTION      0.00   290.30     0  03:42           0        1.52       0.225
  WS02006240           JUNCTION      0.00   305.06     0  03:41           0         1.5       0.178
  WS02006242           JUNCTION      0.00   319.95     0  02:10           0         1.5       0.222
  WS02006243           JUNCTION      0.00   339.17     0  02:11           0        1.48      -0.559
  WS02006245           JUNCTION      0.00   345.58     0  02:11           0        1.49       0.251
  WS02006247           JUNCTION      0.00   355.10     0  02:10           0        1.49       0.010
  WS02006248           JUNCTION      0.00   362.35     0  02:10           0        1.48      -0.045
  WS02006249           JUNCTION      0.00   439.34     0  02:20           0        1.68       0.067
  WS02006239           JUNCTION      0.00   295.33     0  03:41           0        1.51       0.271
  WS02006251           JUNCTION      0.08   439.49     0  02:20     0.00217        1.68       0.016
  WS02006252           JUNCTION      0.00   400.00     0  02:10           0        1.44       0.005
  WS02006253           JUNCTION      1.03    41.74     0  02:26     0.00535       0.237       0.009
  WS02006256           JUNCTION      0.00   600.00     0  02:16           0         5.9       0.032
  WS02004138           JUNCTION      0.00   285.00     0  03:50           0         6.3       0.071
  WS02004407           JUNCTION      0.00   584.42     0  02:25           0         5.5       0.065
  WS02006228           JUNCTION      0.00   553.23     0  02:21           0         5.6       0.183
  WS02006229           JUNCTION      0.00   552.65     0  02:21           0        5.61       0.110
  WS02006280           JUNCTION      0.00   204.81     0  02:27           0        1.31       0.006
  WS02006284           JUNCTION      0.10   204.80     0  02:27      0.0027        1.31       0.087
  WS02006287           JUNCTION      0.00   204.70     0  02:27           0        1.31       0.053
  WSF200               JUNCTION      0.00   574.03     0  02:27           0        5.43       0.037
  HS02004901           JUNCTION      9.37     9.37     0  02:23      0.0498      0.0501       3.647
  HS02004881           JUNCTION      4.04    40.76     0  02:26      0.0217        0.23       0.072
  HS02004876           JUNCTION      7.43    36.75     0  02:26      0.0417       0.209       0.259
  HS02004870           JUNCTION      7.54    29.42     0  02:26      0.0411       0.167       0.066
  HS02004862           JUNCTION      7.28    22.06     0  02:26      0.0469       0.126       0.137
  HS02004856           JUNCTION      5.65    14.84     0  02:26       0.031      0.0805       1.827
  HS02004852           JUNCTION      0.00     9.33     0  02:26           0      0.0496       0.109
  HS02004848           JUNCTION     15.91    15.91     0  02:26      0.0988      0.0988       0.048
  HS02004842           JUNCTION      0.00     6.79     0  02:52           0      0.0622      26.417
  HS02004837           JUNCTION     19.22    25.66     0  02:25       0.251         0.3       0.271
  HS02004830           JUNCTION      0.15    25.80     0  02:26     0.00423        0.29       0.426
  HS02004824           JUNCTION     19.28    44.91     0  02:27       0.129       0.418       0.130
  HS02004817           JUNCTION      0.60    45.51     0  02:27      0.0169       0.435       3.987
  HS02004807           JUNCTION     13.93    58.94     0  02:27      0.0757       0.494       0.884
  HS02004802           JUNCTION      0.00    59.00     0  02:28           0       0.491       0.814
  HS02004799           JUNCTION     11.15   123.20     0  02:25      0.0613       0.713       0.360
  HS02004792           JUNCTION     47.36   112.13     0  02:24       0.263       0.652       0.064
  HS02004788           JUNCTION     17.07    65.26     0  02:25       0.132        0.39       0.102
  HS02004785           JUNCTION      0.15    48.39     0  02:25     0.00423       0.259       0.188
  HS02004777           JUNCTION      0.03    48.40     0  02:24    0.000846        0.26       2.037
  HS02004770           JUNCTION     39.46    48.64     0  02:23       0.213       0.261       1.203
  HS02004480           JUNCTION      0.00   146.07     0  02:25           0       0.837       0.127
  HS02004479           JUNCTION      0.00    23.09     0  02:27           0       0.137       0.538
  HS02004478           JUNCTION      0.00   204.69     0  02:26           0        1.31       0.032
  YS02001745           JUNCTION    149.28   149.28     0  03:01        1.44        1.44       0.789
  YS02001748           JUNCTION      0.04   287.34     0  02:54     0.00127        1.43       1.652
  YS02001751           JUNCTION      0.01   375.54     0  02:53     0.00031        1.41       1.699
  YS02001754           JUNCTION      0.26   224.80     0  02:57     0.00733        1.39       1.795
  YS02001762           JUNCTION      0.00   203.74     0  03:00           0        1.49       1.436
  YS02001765           JUNCTION      0.00   201.34     0  03:00           0        1.49       1.636
  YS02001767           JUNCTION      0.54   199.33     0  03:00      0.0151        1.51       2.413
  YS02001770           JUNCTION    187.24   196.85     0  02:59        1.65        1.66       1.942
  YS02001774           JUNCTION      0.00   106.08     0  04:14           0       0.151      19.785
  YS02001779           JUNCTION      0.01   105.91     0  04:14    0.000141       0.117      14.903
  YS02001882           JUNCTION      0.00    12.95     0  03:01           0      0.0132      17.390
  YS02001884           JUNCTION      0.00    16.06     0  02:54           0      0.0411      15.340
  YS02001759           JUNCTION    180.39   386.29     0  03:00        1.53        2.97       0.769
  YS02001887           JUNCTION    226.70   242.91     0  02:57        1.79        1.81       0.433
  YS02001890           JUNCTION      0.00   237.32     0  02:57           0        1.77       0.481
  YS02001898           JUNCTION      0.00   239.36     0  03:03           0        1.76       0.154
  YS02001901           JUNCTION      0.00   241.52     0  02:57           0        1.76       0.352
  YS02001904           JUNCTION      0.00   244.96     0  03:04           0        1.75       0.325
  YS02001907           JUNCTION      0.00   473.45     0  03:03           0        3.82       0.620
  YS02001910           JUNCTION      0.00   222.86     0  03:03           0        2.08       0.528
  YS02001915           JUNCTION    132.40   210.68     0  03:04        1.22        2.08       0.254
  YS02001918           JUNCTION      0.00    75.84     0  03:03           0       0.866       0.175
  YS02001619           JUNCTION    129.20   129.20     0  03:01        1.21        1.21       0.962
  YS02001629           JUNCTION      0.00   231.81     0  02:55           0        1.13       2.538
  YS02001641           JUNCTION      0.00   302.55     0  03:00           0        2.45       0.862
  YS02001644           JUNCTION    142.03   593.89     0  04:09        1.38        5.92       0.438
  YS02001652           JUNCTION      0.00   219.62     0  03:01           0        1.27       1.899
  YS02001655           JUNCTION      0.15   384.58     0  02:58     0.00434        1.29       1.737
  YS02001920           JUNCTION      2.87    67.64     0  03:02      0.0809       0.868       0.287
  YS02001923           JUNCTION      0.04    64.78     0  03:02     0.00106       0.788       0.052
  YS02001926           JUNCTION      0.05    64.97     0  03:01     0.00147        0.79       0.356
  YS02001929           JUNCTION     64.98    64.98     0  03:01       0.788       0.788       0.052
  YS02001658           JUNCTION      0.00   539.64     0  03:13           0         1.4       1.494
  YS02001661           JUNCTION      0.00   461.99     0  03:51           0        1.85       0.518
  YS02001664           JUNCTION    164.01   389.17     0  03:50        1.32        1.76       0.357
  YS02001622           JUNCTION      0.00   172.20     0  02:57           0         1.2       2.645
  YS02001633           JUNCTION    144.48   303.41     0  03:00        1.43         2.5       1.287
  YS02001649           JUNCTION      0.00   618.36     0  03:01           0        4.93       0.748
  YS02001757           JUNCTION      0.00  1103.92     0  03:02           0        7.17       1.298
  YS02001895           JUNCTION      0.00   239.56     0  02:57           0        1.76       0.240
  YS02001625           JUNCTION      0.00   231.93     0  02:55           0        1.16       3.443
  YS02163301           JUNCTION      0.00   161.97     0  03:14           0         1.1       2.213
  YS02163601           JUNCTION      0.11   303.34     0  03:00      0.0031        2.47       1.219
  YS02164001           JUNCTION      0.00   303.41     0  03:00           0        2.45       0.823
  YS02001647           JUNCTION      0.00   443.82     0  03:00           0        4.14       0.692
  YSB1154              JUNCTION     13.22    13.22     0  02:24      0.0743      0.0752       1.964
  YSB6556              JUNCTION      0.00    13.14     0  02:25           0      0.0759       1.672
  YSB1174              JUNCTION     10.23    10.23     0  02:22       0.054      0.0546       2.414
  YSB1171              JUNCTION      0.00    23.08     0  02:25           0       0.136       4.882
  YS02006553           JUNCTION      0.00   460.57     0  03:04           0        3.81       0.382
  YS02006561           JUNCTION      0.00   680.84     0  02:59           0        5.39       0.003
  YS02006556           JUNCTION      0.00   465.62     0  03:04           0        3.81       0.284
  YS02006558           JUNCTION    197.15   657.85     0  03:03        1.63        5.42       0.098
  YS02001783           JUNCTION      0.00   660.06     0  03:04           0        5.39       0.036
  YS02001784           JUNCTION      1.06   651.69     0  03:04      0.0299        5.42       0.057
  YS02001786           JUNCTION      0.06   647.04     0  03:04     0.00159        5.42       0.055
  YS02001788           JUNCTION      0.07   644.89     0  03:05       0.002        5.42       0.032
  YS02001790           JUNCTION      0.15   645.84     0  03:05     0.00437        5.42       0.041
  YS02001791           JUNCTION      0.00   650.00     0  03:05           0        5.42       0.021
  YS02001793           JUNCTION      0.00   768.84     0  03:14           0        5.42      -0.022
  WS02004139           JUNCTION      0.32   285.32     0  03:53     0.00905        6.31       0.597
  WSC                  OUTFALL       0.00   816.39     0  02:35           0        12.2       0.000
  3                    OUTFALL       0.00   521.03     0  02:19           0        3.34       0.000
  4                    OUTFALL       0.00   169.26     0  02:20           0       0.191       0.000
  5                    OUTFALL       0.00     0.00     0  00:00           0           0       0.000 ltr
  JK-storage           STORAGE       0.00  1175.75     0  03:14           0        5.57      -5.605
  CC-storage           STORAGE       0.00  1104.32     0  03:02           0        5.39       1.219
  XR-storage           STORAGE     442.93   442.93     0  03:01        8.07        8.67      -0.000
  
  
  **********************
  Node Surcharge Summary
  **********************
  
  Surcharging occurs when water rises above the top of the highest conduit.
  ---------------------------------------------------------------------
                                               Max. Height   Min. Depth
                                   Hours       Above Crown    Below Rim
  Node                 Type      Surcharged         Meters       Meters
  ---------------------------------------------------------------------
  WS02004404           JUNCTION        0.09          0.198        2.582
  WS02004405           JUNCTION        0.01          0.010        2.790
  WS02006109           JUNCTION        1.40          0.170        1.650
  WS02006110           JUNCTION        0.50          0.026        1.824
  WS02006112           JUNCTION        0.94          0.172        1.508
  WS02006231           JUNCTION        0.08          0.008        1.522
  WS02006232           JUNCTION        1.10          0.150        1.330
  WS02006234           JUNCTION        0.50          0.076        1.164
  WS02006235           JUNCTION        0.76          0.114        1.176
  WS02006238           JUNCTION        0.85          0.130        1.300
  WS02006240           JUNCTION        0.39          0.057        1.333
  WS02006242           JUNCTION        0.56          0.116        0.704
  WS02006243           JUNCTION        0.13          0.008        0.762
  WS02006239           JUNCTION        0.52          0.079        1.211
  WS02006252           JUNCTION        0.80          0.190        0.910
  WS02006228           JUNCTION        1.38          0.201        1.999
  YS02001748           JUNCTION        4.28          0.233        0.957
  YS02001751           JUNCTION        4.73          1.011        0.189
  YS02001754           JUNCTION        5.15          0.852        0.298
  YS02001762           JUNCTION        5.50          1.023        0.127
  YS02001765           JUNCTION        5.46          0.967        0.133
  YS02001767           JUNCTION        5.42          0.925        0.105
  YS02001770           JUNCTION        5.36          0.872        0.048
  YS02001774           JUNCTION        5.49          0.969        0.081
  YS02001779           JUNCTION        5.11          0.680        0.000
  YS02001759           JUNCTION        5.53          1.056        0.154
  YS02001907           JUNCTION        0.26          0.071        0.879
  YS02001619           JUNCTION        4.67          0.610        0.000
  YS02001629           JUNCTION        4.69          0.470        0.000
  YS02001641           JUNCTION        5.48          0.935        0.165
  YS02001644           JUNCTION        5.48          0.920        0.000
  YS02001652           JUNCTION        5.23          1.130        0.000
  YS02001655           JUNCTION        4.75          1.200        0.000
  YS02001658           JUNCTION        4.32          1.300        0.000
  YS02001661           JUNCTION        0.05          0.776        0.614
  YS02001622           JUNCTION        4.83          0.620        0.000
  YS02001633           JUNCTION        5.45          0.922        0.138
  YS02001649           JUNCTION        5.51          1.050        0.000
  YS02001757           JUNCTION        5.64          1.163        0.047
  YS02001625           JUNCTION        5.27          0.780        0.000
  YS02163301           JUNCTION        5.42          0.895        0.135
  YS02163601           JUNCTION        5.51          0.989        0.091
  YS02164001           JUNCTION        5.46          0.920        0.180
  YS02001647           JUNCTION        5.25          0.799        0.101
  YS02006553           JUNCTION        0.39          0.093        1.097
  YS02001793           JUNCTION        0.32          2.230        0.370
  
  
  *********************
  Node Flooding Summary
  *********************
  
  Flooding refers to all water that overflows a node, whether it ponds or not.
  --------------------------------------------------------------------------
                                                             Total   Maximum
                                 Maximum   Time of Max       Flood    Ponded
                        Hours       Rate    Occurrence      Volume     Depth
  Node                 Flooded       LPS   days hr:min    10^6 ltr    Meters
  --------------------------------------------------------------------------
  YS02001779              1.46    105.78      0  04:14       0.095     0.000
  YS02001619              0.01     16.29      0  03:21       0.000     0.000
  YS02001629              0.01     19.23      0  03:22       0.000     0.000
  YS02001644              3.99    593.75      0  04:09       3.855     0.000
  YS02001652              0.01     28.36      0  02:58       0.000     0.000
  YS02001655              0.01    335.49      0  02:58       0.002     0.000
  YS02001658              0.01    163.16      0  03:16       0.000     0.000
  YS02001622              0.01     12.70      0  03:20       0.000     0.000
  YS02001649              0.01     22.58      0  03:52       0.000     0.000
  YS02001625              0.02     13.77      0  03:22       0.000     0.000
  XR-storage              3.14    440.73      0  03:00       1.693     0.000
  
  
  **********************
  Storage Volume Summary
  **********************
  
  --------------------------------------------------------------------------------------------------
                         Average     Avg  Evap Exfil       Maximum     Max    Time of Max    Maximum
                          Volume    Pcnt  Pcnt  Pcnt        Volume    Pcnt     Occurrence    Outflow
  Storage Unit           1000 m3    Full  Loss  Loss       1000 m3    Full    days hr:min        LPS
  --------------------------------------------------------------------------------------------------
  JK-storage               0.115      39     0     0         0.269      92       0  03:34     637.62
  CC-storage               2.386      15     0     0         3.858      25       0  04:06     400.00
  XR-storage               0.885      96     0     0         0.926     100       0  02:11     285.00
  
  
  ***********************
  Outfall Loading Summary
  ***********************
  
  -----------------------------------------------------------
                         Flow       Avg       Max       Total
                         Freq      Flow      Flow      Volume
  Outfall Node           Pcnt       LPS       LPS    10^6 ltr
  -----------------------------------------------------------
  WSC                  100.00    514.14    816.39      12.207
  3                     84.80    252.47    521.03       3.339
  4                     21.89     63.51    169.26       0.191
  5                      0.00      0.00      0.00       0.000
  -----------------------------------------------------------
  System                51.67    830.11   1287.23      15.737
  
  
  ********************
  Link Flow Summary
  ********************
  
  -----------------------------------------------------------------------------
                                 Maximum  Time of Max   Maximum    Max/    Max/
                                  |Flow|   Occurrence   |Veloc|    Full    Full
  Link                 Type          LPS  days hr:min     m/sec    Flow   Depth
  -----------------------------------------------------------------------------
  WS02003066WSF200     CONDUIT    574.03     0  02:27      2.88    0.10    0.23
  WS02006287WS02006284 CONDUIT    204.71     0  02:27      1.62    0.09    0.22
  WS02006284WS02006280 CONDUIT    204.81     0  02:27      1.86    0.09    0.20
  WS02006280WS02006229 CONDUIT    204.81     0  02:27      2.99    0.04    0.14
  WS02006229WS02006228 CONDUIT    553.23     0  02:21      1.10    1.83    1.00
  WS02006256WS02006235 CONDUIT    149.94     0  01:25      2.14    1.59    1.00
  WS02006253WS02006251 CONDUIT     59.72     0  02:29      0.44    0.18    0.96
  WS02006252WS02006251 CONDUIT    400.14     0  02:10      3.18    1.47    1.00
  WS02006251WS02006249 CONDUIT    439.34     0  02:20      1.23    1.27    0.93
  WS02006249WS02006248 CONDUIT    362.35     0  02:10      1.16    1.98    0.88
  WS02006248WS02006247 CONDUIT    355.10     0  02:10      1.12    0.77    0.93
  WS02006247WS02006245 CONDUIT    345.58     0  02:11      1.07    2.74    0.98
  WS02006245WS02006243 CONDUIT    339.17     0  02:11      1.07    1.00    0.99
  WS02006243WS02006242 CONDUIT    319.95     0  02:10      0.92    0.68    1.00
  WS02006242WS02006240 CONDUIT    305.06     0  03:41      0.82    1.21    1.00
  WS02006240WS02006239 CONDUIT    295.33     0  03:41      0.81    0.93    1.00
  WS02006239WS02006238 CONDUIT    290.30     0  03:42      0.75    0.93    1.00
  WS02006238WS02006235 CONDUIT    292.11     0  03:42      0.76    0.65    1.00
  WS02006235WS02006234 CONDUIT    387.90     0  03:42      1.03    4.09    1.00
  WS02006234WS02006232 CONDUIT    383.52     0  03:42      1.00    0.78    1.00
  WS02006232WS02006231 CONDUIT    383.29     0  03:42      1.05    0.80    1.00
  WS02006231WS02006230 CONDUIT    378.37     0  03:43      1.26    5.74    0.97
  WS02006230WS02006229 CONDUIT    387.46     0  03:43      1.01    8.62    1.00
  WS02006228WS02006109 CONDUIT    553.21     0  02:21      1.10    2.42    1.00
  WS02006116WS02004401 CONDUIT    584.18     0  02:25      0.80    0.81    0.90
  WS02006115WS02006116 CONDUIT    576.22     0  02:25      0.95    0.74    0.82
  WS02006113WS02006111 CONDUIT    576.77     0  02:21      2.49    0.69    0.47
  WS02006112WS02006115 CONDUIT    580.09     0  02:22      0.79    0.34    0.90
  WS02006111WS02006112 CONDUIT    559.60     0  02:22      1.55    0.27    0.68
  WS02006110WS02006113 CONDUIT    555.17     0  02:21      1.31    0.51    0.79
  WS02006109WS02006110 CONDUIT    554.38     0  02:21      1.10    1.07    1.00
  WS02004411WS02004412 CONDUIT    575.19     0  02:26      0.96    0.82    0.71
  WS02004401WS02004402 CONDUIT    593.45     0  02:24      0.79    0.71    0.92
  WS02004413WS02003067 CONDUIT    573.15     0  02:27      1.15    0.25    0.61
  WS02004412WS02004413 CONDUIT    573.82     0  02:26      0.89    0.38    0.80
  WS02004410WS02004411 CONDUIT    576.35     0  02:25      0.97    0.79    0.71
  WS02004409WS02004410 CONDUIT    577.63     0  02:25      0.99    0.75    0.70
  WS02004407WS02004409 CONDUIT    579.94     0  02:25      1.50    0.21    0.50
  WS02004406WS02004407 CONDUIT    584.42     0  02:25      1.09    0.26    0.65
  WS02004405WS02004406 CONDUIT    604.98     0  02:24      0.77    1.19    0.99
  WS02004404WS02004405 CONDUIT    610.41     0  02:23      0.79    5.98    1.00
  WS02004403WS02004404 CONDUIT    608.96     0  02:23      0.78    0.44    0.98
  WS02004402WS02004403 CONDUIT    588.78     0  02:24      0.77    0.85    0.94
  WS02004139WS02001211 CONDUIT    286.82     0  04:03      0.69    0.36    0.52
  WS02004138WS02004139 CONDUIT    285.00     0  03:53      2.95    0.06    0.38
  WS02003067WS02003066 CONDUIT    573.80     0  02:27      1.25    0.18    0.43
  WS02001213WS02003059 CONDUIT    299.88     0  04:01      0.65    0.49    0.71
  WS02001212WS02001213 CONDUIT    296.88     0  04:02      1.19    0.46    0.39
  WS02001211WS02001212 CONDUIT    295.68     0  04:03      0.67    0.23    0.56
  WS02003072WS02003073 CONDUIT    815.34     0  02:34      1.64    1.76    0.45
  WS02003069WS02003072 CONDUIT    815.43     0  02:34      1.55    0.39    0.47
  WS02003060WS02003069 CONDUIT    815.95     0  02:33      1.80    0.32    0.42
  WS02003059WS02003060 CONDUIT    303.74     0  04:01      0.76    0.20    0.61
  HS02004901HS02004770 CONDUIT      9.22     0  02:24      0.05    0.03    0.31
  HS02004876HS02004881 CONDUIT     36.81     0  02:26      0.59    0.39    0.09
  HS02004870HS02004876 CONDUIT     29.40     0  02:26      0.41    0.02    0.10
  HS02004842HS02004848 CONDUIT      6.79     0  02:52      0.04    0.00    0.28
  HS02004837HS02004842 CONDUIT      7.01     0  03:02      0.42    0.00    0.29
  HS02004830HS02004837 CONDUIT     25.65     0  02:26      0.46    0.03    0.08
  HS02004824HS02004830 CONDUIT     25.79     0  02:27      0.49    0.03    0.08
  HS02004817HS02004824 CONDUIT     44.91     0  02:27      0.17    0.02    0.41
  HS02004770HS02004777 CONDUIT     48.37     0  02:24      0.21    0.09    0.33
  HS02004799HS02004480 CONDUIT    123.11     0  02:25      0.58    0.16    0.31
  HS02004792HS02004799 CONDUIT    112.10     0  02:25      0.66    0.07    0.24
  HS02004788HS02004792 CONDUIT     65.23     0  02:26      0.81    0.04    0.11
  HS02004785HS02004788 CONDUIT     48.34     0  02:26      0.49    0.36    0.14
  HS02004777HS02004785 CONDUIT     48.24     0  02:25      0.26    0.06    0.26
  HS02004480HS02004478 CONDUIT    146.06     0  02:26      0.94    0.62    0.22
  HS02004479HS02004480 CONDUIT     23.22     0  02:28      0.27    0.02    0.30
  HS02004862HS02004870 CONDUIT     22.03     0  02:27      0.49    0.02    0.06
  HS02004848HS02004852 CONDUIT      9.33     0  02:26      0.33    0.01    0.04
  HS02004856HS02004862 CONDUIT     14.82     0  02:26      0.35    0.01    0.06
  HS02004852HS02004856 CONDUIT      9.30     0  02:27      0.14    0.01    0.10
  HS02004802HS02004478 CONDUIT     59.19     0  02:29      0.33    0.05    0.26
  HS02004478WS02006287 CONDUIT    204.70     0  02:27      1.31    0.06    0.17
  HS02004817HS02004807 CONDUIT     45.68     0  02:29      0.13    0.03    0.52
  HS02004807HS02004802 CONDUIT     59.00     0  02:28      0.28    0.11    0.31
  YS02001759YS02001757 CONDUIT    387.59     0  03:00      0.49    0.28    1.00
  YS02001762YS02001759 CONDUIT    205.95     0  03:00      0.26    0.24    1.00
  YS02001765YS02001762 CONDUIT    203.74     0  03:00      0.28    0.19    1.00
  YS02001770YS02001767 CONDUIT    198.79     0  03:00      0.25    0.79    1.00
  YS02001774YS02001770 CONDUIT    106.08     0  04:14      0.22    0.07    1.00
  YS02001779YS02001774 CONDUIT    105.91     0  04:14      0.13    0.05    1.00
  YS02001649YS02001757 CONDUIT    618.49     0  03:01      0.79    0.38    1.00
  YS02001767YS02001765 CONDUIT    201.34     0  03:00      0.30    0.25    1.00
  YS02006561YS02001783 CONDUIT    660.06     0  03:04      2.13    0.34    0.60
  YS02001783YS02001784 CONDUIT    650.63     0  03:04      1.57    0.90    0.77
  YS02001784YS02001785 CONDUIT    646.98     0  03:04      1.69    1.51    0.71
  YS02001788YS02001790 CONDUIT    645.69     0  03:05      2.23    0.48    0.56
  YS02001790YS02001791 CONDUIT    650.00     0  03:05      2.62    0.71    0.80
  YS02001791YS02001793 CONDUIT    650.48     0  03:14      5.47    0.28    0.96
  YS02001910YS02001907 CONDUIT    232.74     0  03:03      0.50    0.13    0.91
  YS02001786YS02001788 CONDUIT    644.82     0  03:05      2.13    1.24    0.58
  YS02001915YS02001910 CONDUIT    222.86     0  03:03      0.55    0.11    0.72
  YS02001918YS02001915 CONDUIT     83.62     0  03:13      0.44    0.05    0.44
  YS02001923YS02001920 CONDUIT     64.77     0  03:02      0.57    0.03    0.22
  YS02001926YS02001923 CONDUIT     64.74     0  03:02      0.66    0.09    0.18
  YS02001929YS02001926 CONDUIT     64.92     0  03:01      0.71    0.03    0.17
  YS02001920YS02001918 CONDUIT     75.84     0  03:03      0.57    0.07    0.30
  YS02001629YS02163301 CONDUIT    161.97     0  03:14      0.21    0.20    1.00
  YS02001619YS02001622 CONDUIT    172.20     0  02:57      0.57    0.25    1.00
  YS02001622YS02001625 CONDUIT    231.93     0  02:55      0.31    0.12    1.00
  YS02001625YS02001629 CONDUIT    231.81     0  02:55      0.30    0.11    1.00
  YS02163301YS02001633 CONDUIT    161.99     0  03:14      0.21    0.15    1.00
  YS02163601YS02164001 CONDUIT    303.41     0  03:00      0.39    0.27    1.00
  YS02164001YS02001641 CONDUIT    302.55     0  03:00      0.39    0.41    1.00
  YS02001641YS02001644 CONDUIT    302.40     0  02:59      0.39    0.98    1.00
  YS02001647YS02001649 CONDUIT    442.56     0  03:00      0.56    0.23    1.00
  YS02006553YS02006556 CONDUIT    465.62     0  03:04      0.60    0.40    0.99
  YS02006556YS02006558 CONDUIT    468.71     0  03:04      0.60    0.37    1.00
  YSB6556YSB1171       CONDUIT     13.19     0  02:28      0.06    0.01    0.57
  YS02001907YS02006553 CONDUIT    460.57     0  03:04      0.51    0.54    1.00
  YS02006558YS02006561 CONDUIT    680.84     0  02:59      3.10    1.50    0.74
  YS02001633YS02163601 CONDUIT    303.23     0  03:00      0.39    0.32    1.00
  YS02001644YS02001647 CONDUIT    443.82     0  03:00      0.57    0.26    1.00
  YS02001745YS02001748 CONDUIT    287.30     0  02:54      1.42    0.11    0.93
  YS02001748YS02001751 CONDUIT    375.52     0  02:53      1.00    0.19    1.00
  YS02001751YS02001754 CONDUIT    224.54     0  02:57      0.86    0.11    1.00
  YS02001754YS02001757 CONDUIT    225.26     0  02:57      0.33    0.09    1.00
  YS02001882YS02001884 CONDUIT     13.13     0  02:50      0.09    0.02    0.66
  YS02001884YS02001887 CONDUIT     20.20     0  02:57      0.05    0.03    0.75
  YS02001890YS02001895 CONDUIT    239.56     0  02:57      0.41    0.11    0.72
  YS02001895YS02001898 CONDUIT    239.36     0  03:03      0.52    0.42    0.58
  YS02001898YS02001901 CONDUIT    241.52     0  02:57      0.45    0.16    0.66
  YS02001901YS02001904 CONDUIT    244.96     0  03:04      0.42    0.38    0.71
  YS02001904YS02001907 CONDUIT    265.22     0  03:02      0.37    0.09    0.85
  YS02001887YS02001890 CONDUIT    237.32     0  02:57      0.36    0.41    0.80
  YS02001652YS02001649 CONDUIT    219.70     0  03:01      0.56    0.11    1.00
  YS02001655YS02001652 CONDUIT    219.62     0  03:01      0.91    0.11    1.00
  YS02001658YS02001655 CONDUIT    384.43     0  02:58      1.15    0.16    1.00
  YS02001661YS02001658 CONDUIT    539.64     0  03:13      1.49    0.21    1.00
  YS02001664YS02001661 CONDUIT    461.99     0  03:51      1.39    0.14    0.71
  YSB1154YSB6556       CONDUIT     13.14     0  02:25      0.16    0.02    0.46
  YSB1174YSB1171       CONDUIT     10.08     0  02:23      0.04    0.02    0.57
  YSB1171HS02004479    CONDUIT     23.09     0  02:27      0.54    0.02    0.44
  HS02004881HS02006253 CONDUIT     40.75     0  02:26      1.68    0.01    0.27
  YS02001793JiankangQianchi CONDUIT   1175.75     0  03:14     14.24    0.09    1.00
  YS02001757CaochengTiaoxuchi CONDUIT   1104.32     0  03:02      1.74    0.49    1.00
  WSF200WS02003060     CONDUIT    574.19     0  02:27      2.17    0.13    0.33
  1                    CONDUIT    816.39     0  02:35      3.15    0.28    0.36
  2                    CONDUIT    169.26     0  02:20      5.59    0.41    0.44
  3                    CONDUIT    521.03     0  02:19      9.86    0.83    0.70
  4                    CONDUIT      0.00     0  00:00      0.00    0.00    0.00
  CC-Pump-1            PUMP       200.00     0  02:10              1.00
  CC-Pump-2            PUMP       200.00     0  02:10              1.00
  JK-Pump-1            PUMP       300.00     0  02:16              1.00
  JK-Pump-2            PUMP       300.00     0  01:30              1.00
  XR-Pump-1            PUMP        95.00     0  03:50              1.00
  XR-Pump-2            PUMP        95.00     0  00:00              1.00
  XR-Pump-3            PUMP        95.00     0  01:30              1.00
  XR-Pump-4            PUMP        95.00     0  00:00              1.00
  
  
  ***************************
  Flow Classification Summary
  ***************************
  
  -------------------------------------------------------------------------------------
                      Adjusted    ---------- Fraction of Time in Flow Class ---------- 
                       /Actual         Up    Down  Sub   Sup   Up    Down  Norm  Inlet 
  Conduit               Length    Dry  Dry   Dry   Crit  Crit  Crit  Crit  Ltd   Ctrl  
  -------------------------------------------------------------------------------------
  WS02003066WSF200        1.00   0.08  0.00  0.00  0.00  0.92  0.00  0.00  0.65  0.00
  WS02006287WS02006284    1.00   0.02  0.01  0.00  0.47  0.49  0.00  0.00  0.77  0.00
  WS02006284WS02006280    1.00   0.03  0.00  0.00  0.00  0.00  0.00  0.97  0.00  0.00
  WS02006280WS02006229    1.00   0.03  0.00  0.00  0.00  0.00  0.00  0.97  0.00  0.00
  WS02006229WS02006228    1.00   0.00  0.00  0.00  1.00  0.00  0.00  0.00  0.00  0.00
  WS02006256WS02006235    1.00   0.04  0.00  0.00  0.96  0.00  0.00  0.00  0.00  0.00
  WS02006253WS02006251    1.00   0.01  0.01  0.00  0.97  0.00  0.00  0.00  0.00  0.00
  WS02006252WS02006251    1.00   0.10  0.10  0.00  0.00  0.00  0.81  0.00  0.00  0.00
  WS02006251WS02006249    1.00   0.00  0.00  0.00  1.00  0.00  0.00  0.00  0.74  0.00
  WS02006249WS02006248    1.00   0.00  0.00  0.00  0.46  0.00  0.54  0.00  0.00  0.00
  WS02006248WS02006247    1.00   0.00  0.00  0.00  0.98  0.00  0.00  0.01  0.62  0.00
  WS02006247WS02006245    1.00   0.01  0.00  0.00  0.97  0.00  0.00  0.02  0.00  0.00
  WS02006245WS02006243    1.00   0.01  0.00  0.00  0.95  0.00  0.00  0.04  0.17  0.00
  WS02006243WS02006242    1.00   0.01  0.00  0.00  0.96  0.00  0.00  0.03  0.04  0.00
  WS02006242WS02006240    1.00   0.01  0.03  0.00  0.96  0.00  0.00  0.00  0.00  0.00
  WS02006240WS02006239    1.00   0.04  0.00  0.00  0.96  0.00  0.00  0.00  0.01  0.00
  WS02006239WS02006238    1.00   0.04  0.00  0.00  0.96  0.00  0.00  0.00  0.00  0.00
  WS02006238WS02006235    1.00   0.04  0.00  0.00  0.96  0.00  0.00  0.00  0.00  0.00
  WS02006235WS02006234    1.00   0.04  0.00  0.00  0.96  0.00  0.00  0.00  0.00  0.00
  WS02006234WS02006232    1.00   0.04  0.00  0.00  0.96  0.00  0.00  0.00  0.00  0.00
  WS02006232WS02006231    1.00   0.04  0.00  0.00  0.96  0.00  0.00  0.00  0.00  0.00
  WS02006231WS02006230    1.00   0.04  0.00  0.00  0.45  0.00  0.51  0.00  0.00  0.00
  WS02006230WS02006229    1.00   0.00  0.00  0.00  0.99  0.00  0.00  0.01  0.00  0.00
  WS02006228WS02006109    1.00   0.00  0.00  0.00  1.00  0.00  0.00  0.00  0.00  0.00
  WS02006116WS02004401    1.00   0.02  0.00  0.00  0.98  0.00  0.00  0.00  0.00  0.00
  WS02006115WS02006116    1.00   0.02  0.00  0.00  0.94  0.00  0.00  0.04  0.00  0.00
  WS02006113WS02006111    1.00   0.01  0.00  0.00  0.01  0.98  0.00  0.00  0.18  0.00
  WS02006112WS02006115    1.00   0.02  0.01  0.00  0.97  0.00  0.00  0.00  0.00  0.00
  WS02006111WS02006112    1.00   0.02  0.00  0.00  0.98  0.00  0.00  0.00  0.92  0.00
  WS02006110WS02006113    1.00   0.00  0.01  0.00  0.99  0.00  0.00  0.00  0.00  0.00
  WS02006109WS02006110    1.00   0.00  0.00  0.00  0.99  0.00  0.00  0.00  0.00  0.00
  WS02004411WS02004412    1.00   0.07  0.00  0.00  0.93  0.00  0.00  0.00  0.00  0.00
  WS02004401WS02004402    1.00   0.02  0.00  0.00  0.98  0.00  0.00  0.00  0.04  0.00
  WS02004413WS02003067    1.00   0.07  0.01  0.00  0.00  0.00  0.92  0.00  0.00  0.00
  WS02004412WS02004413    1.00   0.07  0.00  0.00  0.93  0.00  0.00  0.00  0.00  0.00
  WS02004410WS02004411    1.00   0.07  0.00  0.00  0.93  0.00  0.00  0.00  0.00  0.00
  WS02004409WS02004410    1.00   0.07  0.00  0.00  0.93  0.00  0.00  0.00  0.00  0.00
  WS02004407WS02004409    1.00   0.07  0.00  0.00  0.93  0.00  0.00  0.00  0.79  0.00
  WS02004406WS02004407    1.00   0.00  0.07  0.00  0.93  0.00  0.00  0.00  0.00  0.00
  WS02004405WS02004406    1.00   0.00  0.00  0.00  1.00  0.00  0.00  0.00  0.04  0.00
  WS02004404WS02004405    1.00   0.00  0.00  0.00  1.00  0.00  0.00  0.00  0.05  0.00
  WS02004403WS02004404    1.00   0.00  0.03  0.00  0.97  0.00  0.00  0.00  0.04  0.00
  WS02004402WS02004403    1.00   0.03  0.00  0.00  0.97  0.00  0.00  0.00  0.00  0.00
  WS02004139WS02001211    1.00   0.00  0.00  0.00  1.00  0.00  0.00  0.00  0.00  0.00
  WS02004138WS02004139    1.00   0.00  0.00  0.00  1.00  0.00  0.00  0.00  1.00  0.00
  WS02003067WS02003066    1.00   0.08  0.00  0.00  0.92  0.00  0.00  0.00  0.00  0.00
  WS02001213WS02003059    1.00   0.00  0.00  0.00  1.00  0.00  0.00  0.00  0.00  0.00
  WS02001212WS02001213    1.00   0.00  0.00  0.00  0.58  0.00  0.42  0.00  0.00  0.00
  WS02001211WS02001212    1.00   0.00  0.00  0.00  1.00  0.00  0.00  0.00  0.00  0.00
  WS02003072WS02003073    1.00   0.00  0.00  0.00  0.00  0.00  0.00  1.00  0.00  0.00
  WS02003069WS02003072    1.00   0.00  0.00  0.00  1.00  0.00  0.00  0.00  0.23  0.00
  WS02003060WS02003069    1.00   0.00  0.00  0.00  0.99  0.01  0.00  0.00  0.22  0.00
  WS02003059WS02003060    1.00   0.00  0.00  0.00  1.00  0.00  0.00  0.00  0.01  0.00
  HS02004901HS02004770    1.00   0.03  0.00  0.00  0.97  0.00  0.00  0.00  0.00  0.00
  HS02004876HS02004881    1.00   0.00  0.00  0.00  1.00  0.00  0.00  0.00  0.00  0.00
  HS02004870HS02004876    1.00   0.00  0.00  0.00  1.00  0.00  0.00  0.00  0.95  0.00
  HS02004842HS02004848    1.00   0.00  0.03  0.00  0.97  0.00  0.00  0.00  0.61  0.00
  HS02004837HS02004842    1.00   0.00  0.00  0.00  1.00  0.00  0.00  0.00  0.11  0.00
  HS02004830HS02004837    1.00   0.00  0.00  0.00  1.00  0.00  0.00  0.00  0.99  0.00
  HS02004824HS02004830    1.00   0.00  0.00  0.00  1.00  0.00  0.00  0.00  0.00  0.00
  HS02004817HS02004824    1.00   0.00  0.00  0.00  1.00  0.00  0.00  0.00  1.00  0.00
  HS02004770HS02004777    1.00   0.00  0.03  0.00  0.97  0.00  0.00  0.00  0.03  0.00
  HS02004799HS02004480    1.00   0.00  0.01  0.00  0.96  0.00  0.03  0.00  0.00  0.00
  HS02004792HS02004799    1.00   0.00  0.00  0.00  1.00  0.00  0.00  0.00  0.98  0.00
  HS02004788HS02004792    1.00   0.00  0.00  0.00  1.00  0.00  0.00  0.00  0.98  0.00
  HS02004785HS02004788    1.00   0.00  0.00  0.00  1.00  0.00  0.00  0.00  0.00  0.00
  HS02004777HS02004785    1.00   0.00  0.00  0.00  1.00  0.00  0.00  0.00  0.13  0.00
  HS02004480HS02004478    1.00   0.03  0.00  0.00  0.55  0.00  0.00  0.42  0.00  0.00
  HS02004479HS02004480    1.00   0.01  0.00  0.00  0.99  0.00  0.00  0.00  0.12  0.00
  HS02004862HS02004870    1.00   0.00  0.00  0.00  1.00  0.00  0.00  0.00  0.06  0.00
  HS02004848HS02004852    1.00   0.03  0.00  0.00  0.97  0.00  0.00  0.00  0.69  0.00
  HS02004856HS02004862    1.00   0.00  0.05  0.00  0.95  0.00  0.00  0.00  0.81  0.00
  HS02004852HS02004856    1.00   0.03  0.00  0.00  0.97  0.00  0.00  0.00  0.86  0.00
  HS02004802HS02004478    1.00   0.03  0.00  0.00  0.97  0.00  0.00  0.00  0.03  0.00
  HS02004478WS02006287    1.00   0.04  0.00  0.00  0.68  0.29  0.00  0.00  0.77  0.00
  HS02004817HS02004807    1.00   0.00  0.03  0.00  0.97  0.00  0.00  0.00  0.01  0.00
  HS02004807HS02004802    1.00   0.03  0.00  0.00  0.97  0.00  0.00  0.00  0.00  0.00
  YS02001759YS02001757    1.00   0.00  0.00  0.00  1.00  0.00  0.00  0.00  0.16  0.00
  YS02001762YS02001759    1.00   0.00  0.00  0.00  1.00  0.00  0.00  0.00  0.03  0.00
  YS02001765YS02001762    1.00   0.00  0.00  0.00  1.00  0.00  0.00  0.00  0.15  0.00
  YS02001770YS02001767    1.00   0.00  0.00  0.00  1.00  0.00  0.00  0.00  0.00  0.00
  YS02001774YS02001770    1.00   0.00  0.03  0.00  0.97  0.00  0.00  0.00  0.03  0.00
  YS02001779YS02001774    1.00   0.00  0.00  0.00  1.00  0.00  0.00  0.00  0.21  0.00
  YS02001649YS02001757    1.00   0.00  0.00  0.00  1.00  0.00  0.00  0.00  0.16  0.00
  YS02001767YS02001765    1.00   0.00  0.00  0.00  1.00  0.00  0.00  0.00  0.01  0.00
  YS02006561YS02001783    1.00   0.07  0.00  0.00  0.00  0.93  0.00  0.00  0.60  0.00
  YS02001783YS02001784    1.00   0.00  0.07  0.00  0.93  0.00  0.00  0.00  0.01  0.00
  YS02001784YS02001785    1.00   0.00  0.00  0.00  1.00  0.00  0.00  0.00  0.19  0.00
  YS02001788YS02001790    1.00   0.00  0.00  0.00  0.10  0.90  0.00  0.00  0.60  0.00
  YS02001790YS02001791    1.00   0.00  0.00  0.00  0.07  0.93  0.00  0.00  0.70  0.00
  YS02001791YS02001793    1.00   0.00  0.00  0.00  0.27  0.73  0.00  0.00  0.12  0.00
  YS02001910YS02001907    1.00   0.00  0.00  0.00  0.99  0.00  0.00  0.01  0.12  0.00
  YS02001786YS02001788    1.00   0.00  0.00  0.00  0.08  0.92  0.00  0.00  0.00  0.00
  YS02001915YS02001910    1.00   0.00  0.00  0.00  0.99  0.01  0.00  0.00  0.18  0.00
  YS02001918YS02001915    1.00   0.00  0.00  0.00  1.00  0.00  0.00  0.00  0.69  0.00
  YS02001923YS02001920    1.00   0.00  0.00  0.00  1.00  0.00  0.00  0.00  1.00  0.00
  YS02001926YS02001923    1.00   0.00  0.02  0.00  0.00  0.00  0.98  0.00  0.00  0.00
  YS02001929YS02001926    1.00   0.00  0.03  0.00  0.97  0.00  0.00  0.00  0.87  0.00
  YS02001920YS02001918    1.00   0.00  0.00  0.00  1.00  0.00  0.00  0.00  0.00  0.00
  YS02001629YS02163301    1.00   0.04  0.00  0.00  0.96  0.00  0.00  0.00  0.00  0.00
  YS02001619YS02001622    1.00   0.03  0.00  0.00  0.97  0.00  0.00  0.00  0.00  0.00
  YS02001622YS02001625    1.00   0.03  0.00  0.00  0.97  0.00  0.00  0.00  0.07  0.00
  YS02001625YS02001629    1.00   0.03  0.04  0.00  0.91  0.00  0.02  0.00  0.00  0.00
  YS02163301YS02001633    1.00   0.00  0.03  0.00  0.97  0.00  0.00  0.00  0.00  0.00
  YS02163601YS02164001    1.00   0.00  0.02  0.00  0.98  0.00  0.00  0.00  0.00  0.00
  YS02164001YS02001641    1.00   0.00  0.02  0.00  0.98  0.00  0.00  0.00  0.06  0.00
  YS02001641YS02001644    1.00   0.00  0.00  0.00  1.00  0.00  0.00  0.00  0.00  0.00
  YS02001647YS02001649    1.00   0.00  0.06  0.00  0.94  0.00  0.00  0.00  0.01  0.00
  YS02006553YS02006556    1.00   0.00  0.00  0.00  1.00  0.00  0.00  0.00  0.03  0.00
  YS02006556YS02006558    1.00   0.00  0.00  0.00  1.00  0.00  0.00  0.00  0.00  0.00
  YSB6556YSB1171          1.00   0.01  0.02  0.00  0.97  0.00  0.00  0.00  0.00  0.00
  YS02001907YS02006553    1.00   0.00  0.00  0.00  0.99  0.00  0.00  0.00  0.00  0.00
  YS02006558YS02006561    1.00   0.07  0.00  0.00  0.00  0.93  0.00  0.00  0.60  0.00
  YS02001633YS02163601    1.00   0.00  0.00  0.00  1.00  0.00  0.00  0.00  0.15  0.00
  YS02001644YS02001647    1.00   0.00  0.06  0.00  0.94  0.00  0.00  0.00  0.00  0.00
  YS02001745YS02001748    1.00   0.00  0.00  0.00  0.84  0.02  0.00  0.14  0.07  0.00
  YS02001748YS02001751    1.00   0.00  0.00  0.00  0.94  0.06  0.00  0.00  0.16  0.00
  YS02001751YS02001754    1.00   0.00  0.00  0.00  0.92  0.00  0.00  0.08  0.02  0.00
  YS02001754YS02001757    1.00   0.00  0.00  0.00  1.00  0.00  0.00  0.00  0.20  0.00
  YS02001882YS02001884    1.00   0.03  0.00  0.00  0.96  0.00  0.00  0.00  0.00  0.00
  YS02001884YS02001887    1.00   0.01  0.01  0.00  0.97  0.00  0.00  0.00  0.00  0.00
  YS02001890YS02001895    1.00   0.00  0.04  0.00  0.96  0.00  0.00  0.00  0.00  0.00
  YS02001895YS02001898    1.00   0.04  0.00  0.00  0.93  0.00  0.03  0.00  0.00  0.00
  YS02001898YS02001901    1.00   0.04  0.00  0.00  0.96  0.00  0.00  0.00  0.03  0.00
  YS02001901YS02001904    1.00   0.04  0.00  0.00  0.96  0.00  0.00  0.00  0.00  0.00
  YS02001904YS02001907    1.00   0.00  0.04  0.00  0.96  0.00  0.00  0.00  0.00  0.00
  YS02001887YS02001890    1.00   0.00  0.00  0.00  0.99  0.00  0.01  0.00  0.00  0.00
  YS02001652YS02001649    1.00   0.00  0.00  0.00  1.00  0.00  0.00  0.00  0.18  0.00
  YS02001655YS02001652    1.00   0.00  0.00  0.00  0.92  0.00  0.00  0.07  0.02  0.00
  YS02001658YS02001655    1.00   0.00  0.03  0.00  0.91  0.06  0.00  0.00  0.12  0.00
  YS02001661YS02001658    1.00   0.03  0.00  0.00  0.83  0.14  0.00  0.00  0.16  0.00
  YS02001664YS02001661    1.00   0.03  0.00  0.00  0.78  0.19  0.00  0.00  0.30  0.00
  YSB1154YSB6556          1.00   0.03  0.00  0.00  0.97  0.00  0.00  0.00  0.02  0.00
  YSB1174YSB1171          1.00   0.01  0.01  0.00  0.98  0.00  0.00  0.00  0.00  0.00
  YSB1171HS02004479       1.00   0.01  0.00  0.00  0.99  0.00  0.00  0.00  0.10  0.00
  HS02004881HS02006253    1.00   0.01  0.00  0.00  0.33  0.04  0.00  0.63  0.18  0.00
  YS02001793JiankangQianchi    1.00   0.00  0.00  0.00  0.60  0.40  0.00  0.00  0.37  0.00
  YS02001757CaochengTiaoxuchi    1.00   0.00  0.09  0.00  0.91  0.00  0.00  0.00  0.00  0.00
  WSF200WS02003060        1.00   0.00  0.08  0.00  0.51  0.41  0.00  0.00  0.52  0.00
  1                       1.00   0.00  0.00  0.00  0.00  1.00  0.00  0.00  0.40  0.00
  2                       1.00   0.78  0.00  0.00  0.00  0.22  0.00  0.00  0.04  0.00
  3                       1.00   0.15  0.00  0.00  0.00  0.85  0.00  0.00  0.04  0.00
  4                       1.00   1.00  0.00  0.00  0.00  0.00  0.00  0.00  0.00  0.00
  
  
  *************************
  Conduit Surcharge Summary
  *************************
  
  ----------------------------------------------------------------------------
                                                           Hours        Hours 
                         --------- Hours Full --------   Above Full   Capacity
  Conduit                Both Ends  Upstream  Dnstream   Normal Flow   Limited
  ----------------------------------------------------------------------------
  WS02006229WS02006228        1.38      1.43      1.38      1.89         1.38
  WS02006256WS02006235        5.63      5.63      6.48      4.48         0.01
  WS02006252WS02006251        0.39      0.39      0.80      0.70         0.01
  WS02006251WS02006249        0.01      0.01      0.01      0.47         0.01
  WS02006249WS02006248        0.01      0.01      0.01      1.20         0.01
  WS02006247WS02006245        0.01      0.01      0.01      1.50         0.01
  WS02006245WS02006243        0.01      0.01      0.13      0.01         0.01
  WS02006243WS02006242        0.20      0.20      0.56      0.01         0.01
  WS02006242WS02006240        0.39      0.39      0.74      0.77         0.01
  WS02006240WS02006239        0.44      0.44      0.52      0.01         0.01
  WS02006239WS02006238        0.76      0.76      0.85      0.01         0.01
  WS02006238WS02006235        0.82      0.82      0.96      0.01         0.01
  WS02006235WS02006234        0.50      0.50      0.76      5.34         0.01
  WS02006234WS02006232        0.63      0.63      1.10      0.01         0.01
  WS02006232WS02006231        0.08      0.08      1.10      0.01         0.01
  WS02006231WS02006230        0.01      0.01      0.23      6.18         0.01
  WS02006230WS02006229        1.63      1.71      1.63      6.33         1.63
  WS02006228WS02006109        1.40      1.57      1.40      2.10         1.40
  WS02006112WS02006115        0.01      0.01      0.93      0.01         0.01
  WS02006111WS02006112        0.01      0.01      1.99      0.01         0.01
  WS02006110WS02006113        0.01      0.01      1.47      0.01         0.01
  WS02006109WS02006110        0.50      0.50      1.57      0.51         0.01
  WS02004405WS02004406        0.01      0.01      0.01      0.67         0.01
  WS02004404WS02004405        0.01      0.09      0.01      5.82         0.01
  WS02004403WS02004404        0.01      0.01      0.09      0.01         0.01
  WS02003072WS02003073        0.01      0.01      0.01      3.85         0.01
  YS02001759YS02001757        5.53      5.53      5.64      0.01         0.01
  YS02001762YS02001759        5.50      5.50      5.53      0.01         0.01
  YS02001765YS02001762        5.46      5.46      5.50      0.01         0.01
  YS02001770YS02001767        5.42      5.42      5.42      0.01         0.62
  YS02001774YS02001770        5.36      5.36      5.49      0.01         0.01
  YS02001779YS02001774        5.11      5.11      5.49      0.01         0.01
  YS02001649YS02001757        5.51      5.51      5.64      0.01         0.01
  YS02001767YS02001765        5.42      5.42      5.46      0.01         0.01
  YS02001784YS02001785        0.01      0.01      0.01      1.10         0.01
  YS02001791YS02001793        0.01      0.01      0.82      0.01         0.01
  YS02001910YS02001907        0.01      0.01      0.26      0.01         0.01
  YS02001786YS02001788        0.01      0.01      0.01      0.61         0.01
  YS02001629YS02163301        5.35      5.35      5.42      0.01         0.01
  YS02001619YS02001622        4.67      4.67      4.83      0.01         0.02
  YS02001622YS02001625        4.83      4.83      5.27      0.01         0.01
  YS02001625YS02001629        4.69      4.69      5.27      0.01         0.01
  YS02163301YS02001633        5.42      5.42      5.47      0.01         0.01
  YS02163601YS02164001        5.46      5.46      5.51      0.01         0.01
  YS02164001YS02001641        5.46      5.46      5.48      0.01         0.02
  YS02001641YS02001644        5.48      5.48      5.48      0.01         0.66
  YS02001647YS02001649        5.25      5.25      5.51      0.01         0.01
  YS02006553YS02006556        0.01      0.01      0.38      0.01         0.01
  YS02006556YS02006558        0.04      0.04      0.51      0.01         0.01
  YS02001907YS02006553        1.12      1.12      1.35      0.01         0.01
  YS02006558YS02006561        0.01      0.01      0.01      0.94         0.01
  YS02001633YS02163601        5.45      5.45      5.51      0.01         0.01
  YS02001644YS02001647        5.25      5.25      5.48      0.01         0.01
  YS02001745YS02001748        0.01      0.01      4.28      0.01         0.01
  YS02001748YS02001751        4.37      4.37      4.73      0.01         0.01
  YS02001751YS02001754        4.73      4.73      5.15      0.01         0.01
  YS02001754YS02001757        5.24      5.24      5.64      0.01         0.01
  YS02001904YS02001907        0.01      0.01      0.43      0.01         0.01
  YS02001652YS02001649        5.26      5.26      5.51      0.01         0.01
  YS02001655YS02001652        4.75      4.75      5.23      0.01         0.01
  YS02001658YS02001655        4.31      4.31      4.75      0.01         0.01
  YS02001661YS02001658        0.05      0.05      4.32      0.01         0.01
  YS02001664YS02001661        0.01      0.01      0.58      0.01         0.01
  YS02001793JiankangQianchi        0.32      0.32      3.91      0.01         0.01
  YS02001757CaochengTiaoxuchi        4.37      4.37      5.64      0.01         0.01
  
  
  ***************
  Pumping Summary
  ***************
  
  ---------------------------------------------------------------------------------------------------------
                                                  Min       Avg       Max     Total     Power    % Time Off
                        Percent   Number of      Flow      Flow      Flow    Volume     Usage    Pump Curve
  Pump                 Utilized   Start-Ups       LPS       LPS       LPS  10^6 ltr     Kw-hr    Low   High
  ---------------------------------------------------------------------------------------------------------
  CC-Pump-1               23.40           1      0.00    114.15    200.00     0.720      2.39    0.0   40.2
  CC-Pump-2               23.40           1      0.00    114.15    200.00     0.720      2.39    0.0   40.2
  JK-Pump-1               23.40           1      0.00    169.04    300.00     1.066     15.02    0.0    0.0
  JK-Pump-2               82.97           1      0.00    257.69    300.00     4.834     65.22    0.0    0.0
  XR-Pump-1               70.21           3      0.00     72.95     95.00     1.624      9.24    0.0    0.0
  XR-Pump-2               97.87           4      0.00     74.07     95.00     2.337     16.87    0.0    0.0
  XR-Pump-3               10.63           1      0.00     70.83     95.00     0.228      2.14    0.0    0.0
  XR-Pump-4               89.36           4      0.00     73.15     95.00     2.109     14.73    0.0    0.0
  

  Analysis begun on:  Wed Jan  5 14:53:32 2022
  Analysis ended on:  Wed Jan  5 14:53:34 2022
  Total elapsed time: 00:00:02