
  EPA STORM WATER MANAGEMENT MODEL - VERSION 5.1 (Build 5.3.0.dev0)
  --------------------------------------------------------------

  WARNING 04: minimum elevation drop used for Conduit WS02004404WS02004405
  WARNING 03: negative offset ignored for Link YS02001904YS02001907
  
  *********************************************************
  NOTE: The summary statistics displayed in this report are
  based on results found at every computational time step,  
  not just on results from each reporting time step.
  *********************************************************
  
  ****************
  Analysis Options
  ****************
  Flow Units ............... LPS
  Process Models:
    Rainfall/Runoff ........ YES
    RDII ................... NO
    Snowmelt ............... NO
    Groundwater ............ NO
    Flow Routing ........... YES
    Ponding Allowed ........ NO
    Water Quality .......... NO
  Infiltration Method ...... HORTON
  Flow Routing Method ...... DYNWAVE
  Surcharge Method ......... EXTRAN
  Starting Date ............ 08/28/2015 08:00:00
  Ending Date .............. 08/28/2015 15:50:00
  Antecedent Dry Days ...... 8.0
  Report Time Step ......... 00:01:00
  Wet Time Step ............ 00:01:00
  Dry Time Step ............ 00:01:00
  Routing Time Step ........ 5.00 sec
  Variable Time Step ....... YES
  Maximum Trials ........... 8
  Number of Threads ........ 4
  Head Tolerance ........... 0.001500 m
  
  
  **************************        Volume         Depth
  Runoff Quantity Continuity     hectare-m            mm
  **************************     ---------       -------
  Total Precipitation ......         5.493        12.027
  Evaporation Loss .........         0.000         0.000
  Infiltration Loss ........         1.412         3.091
  Surface Runoff ...........         3.074         6.729
  Final Storage ............         1.009         2.209
  Continuity Error (%) .....        -0.014
  
  
  **************************        Volume        Volume
  Flow Routing Continuity        hectare-m      10^6 ltr
  **************************     ---------     ---------
  Dry Weather Inflow .......         0.616         6.165
  Wet Weather Inflow .......         3.073        30.726
  Groundwater Inflow .......         0.000         0.000
  RDII Inflow ..............         0.000         0.000
  External Inflow ..........         0.102         1.024
  External Outflow .........         1.873        18.735
  Flooding Loss ............         1.406        14.061
  Evaporation Loss .........         0.000         0.000
  Exfiltration Loss ........         0.000         0.000
  Initial Stored Volume ....         0.076         0.761
  Final Stored Volume ......         0.617         6.165
  Continuity Error (%) .....        -0.740
  
  
  *************************
  Highest Continuity Errors
  *************************
  Node HS02004842 (16.38%)
  Node YS02001884 (10.30%)
  Node YSB1171 (3.16%)
  Node YS02001774 (3.11%)
  Node HS02004817 (3.01%)
  
  
  ***************************
  Time-Step Critical Elements
  ***************************
  Link 3 (86.39%)
  Link YS02001793JiankangQianchi (6.02%)
  Link WS02006252WS02006251 (1.41%)
  
  
  ********************************
  Highest Flow Instability Indexes
  ********************************
  Link YS02163301YS02001633 (52)
  Link YS02001629YS02163301 (51)
  Link YS02163601YS02164001 (51)
  Link YS02001619YS02001622 (49)
  Link YS02164001YS02001641 (45)
  
  
  *************************
  Routing Time Step Summary
  *************************
  Minimum Time Step           :     0.50 sec
  Average Time Step           :     0.93 sec
  Maximum Time Step           :     5.00 sec
  Percent in Steady State     :     0.00
  Average Iterations per Step :     5.03
  Percent Not Converging      :    25.65
  
  
  ***************************
  Subcatchment Runoff Summary
  ***************************
  
  ------------------------------------------------------------------------------------------------------------------------------
                            Total      Total      Total      Total     Imperv       Perv      Total       Total     Peak  Runoff
                           Precip      Runon       Evap      Infil     Runoff     Runoff     Runoff      Runoff   Runoff   Coeff
  Subcatchment                 mm         mm         mm         mm         mm         mm         mm    10^6 ltr      LPS
  ------------------------------------------------------------------------------------------------------------------------------
  sub0                      12.03       0.00       0.00       0.84       9.92       0.00       9.92        0.01     2.03   0.825
  sub1                      12.03       0.00       0.00       1.32       9.45       0.00       9.45        0.06    13.40   0.786
  sub2                      12.03       0.00       0.00       4.45       6.67       0.00       6.67        0.06    12.40   0.555
  sub3                      12.03       0.00       0.00       4.45       6.63       0.00       6.63        0.15    27.80   0.552
  sub4                      12.03       0.00       0.00       1.32       9.30       0.00       9.30        0.19    33.44   0.773
  sub5                      12.03       0.00       0.00       0.84       9.87       0.00       9.87        0.11    23.84   0.821
  sub7                      12.03       0.00       0.00       1.08       9.69       0.00       9.69        0.03     7.67   0.806
  sub8                      12.03       0.00       0.00       1.08       9.68       0.00       9.68        0.06    14.05   0.805
  sub9                      12.03       0.00       0.00       1.08       9.68       0.00       9.68        0.05    10.50   0.805
  sub10                     12.03       0.00       0.00       0.96       9.77       0.00       9.77        0.11    23.44   0.813
  sub11                     12.03       0.00       0.00       0.96       9.79       0.00       9.79        0.11    26.14   0.814
  sub12                     12.03       0.00       0.00       1.56       9.28       0.00       9.28        0.08    19.99   0.771
  sub14                     12.03       0.00       0.00       1.08       9.68       0.00       9.68        0.09    20.64   0.805
  sub15                     12.03       0.00       0.00       3.61       7.44       0.00       7.44        0.13    28.31   0.619
  sub16                     12.03       0.00       0.00       3.97       7.14       0.00       7.14        0.07    18.12   0.594
  sub17                     12.03       0.00       0.00       3.85       7.24       0.00       7.24        0.06    14.90   0.602
  sub22                     12.03       0.00       0.00       5.17       6.07       0.00       6.07        0.38    88.71   0.504
  sub23                     12.03       0.00       0.00       4.45       6.71       0.00       6.71        0.32    74.74   0.558
  sub60                     12.03       0.00       0.00       1.44       7.74       0.00       7.74        2.35   221.95   0.644
  sub61                     12.03       0.00       0.00       2.04       7.85       0.00       7.85        2.42   262.11   0.653
  sub62                     12.03       0.00       0.00       0.96       8.54       0.00       8.54        2.63   273.68   0.710
  sub63                     12.03       0.00       0.00       3.49       6.87       0.00       6.87        2.08   239.63   0.571
  sub64                     12.03       0.00       0.00       1.80       7.43       0.00       7.43        2.26   211.47   0.618
  sub65                     12.03       0.00       0.00       1.56       7.55       0.00       7.55        2.32   215.23   0.628
  sub66                     12.03       0.00       0.00       3.49       6.37       0.00       6.37        1.95   191.04   0.530
  sub67                     12.03       0.00       0.00       0.96       9.00       0.00       9.00        2.78   332.67   0.749
  sub68                     12.03       0.00       0.00       1.68       8.26       0.00       8.26        2.54   285.76   0.687
  sub69                     12.03       0.00       0.00       1.80       8.55       0.00       8.55        2.00   265.64   0.711
  sub70                     12.03       8.73       0.00       6.95      11.44       0.11      11.55        2.64   261.84   0.556
  sub71                     12.03       0.00       0.00       0.96       8.33       0.00       8.33        1.97   195.24   0.692
  sub72                     12.03       0.00       0.00       0.84       6.67       0.00       6.67        1.36   105.11   0.555
  sub73                     12.03      11.24       0.00       7.83      12.57       0.08      12.65        2.97   255.46   0.544
  sub74                     12.03       0.00       0.00       9.02       2.55       0.00       2.55        1.02   143.98   0.212
  
  
  ******************
  Node Depth Summary
  ******************
  
  ---------------------------------------------------------------------------------
                                 Average  Maximum  Maximum  Time of Max    Reported
                                   Depth    Depth      HGL   Occurrence   Max Depth
  Node                 Type       Meters   Meters   Meters  days hr:min      Meters
  ---------------------------------------------------------------------------------
  WS02001211           JUNCTION     0.60     0.71     5.55     0  03:38        0.71
  WS02001212           JUNCTION     0.34     0.43     5.49     0  03:37        0.43
  WS02001213           JUNCTION     0.59     0.67     5.44     0  03:36        0.67
  WS02003069           JUNCTION     0.40     0.50     5.09     0  03:35        0.50
  WS02003072           JUNCTION     0.47     0.57     4.94     0  03:35        0.57
  WS02003073           JUNCTION     0.28     0.34     4.41     0  03:36        0.34
  WS02003060           JUNCTION     0.36     0.44     5.38     0  03:35        0.44
  WS02003066           JUNCTION     0.22     0.33     5.88     0  01:51        0.33
  WS02003059           JUNCTION     0.65     0.73     5.42     0  03:36        0.73
  WS02003067           JUNCTION     0.55     0.75     6.07     0  01:50        0.75
  WS02004401           JUNCTION     0.67     0.99     6.99     0  01:47        0.99
  WS02004402           JUNCTION     0.70     1.01     6.97     0  01:46        1.01
  WS02004403           JUNCTION     0.71     1.01     6.94     0  01:44        1.01
  WS02004404           JUNCTION     0.79     1.24     7.09     0  01:40        1.07
  WS02004406           JUNCTION     0.79     1.05     6.88     0  01:43        1.04
  WS02004409           JUNCTION     0.48     0.76     6.53     0  01:49        0.76
  WS02004410           JUNCTION     0.50     0.77     6.49     0  01:50        0.77
  WS02004411           JUNCTION     0.51     0.77     6.45     0  01:50        0.77
  WS02004412           JUNCTION     0.53     0.77     6.41     0  01:50        0.77
  WS02004413           JUNCTION     0.68     0.92     6.39     0  01:50        0.92
  WS02004405           JUNCTION     0.78     1.07     6.92     0  01:42        1.06
  WS02006109           JUNCTION     0.76     1.17     7.79     0  01:39        1.13
  WS02006110           JUNCTION     0.74     1.06     7.64     0  01:38        1.02
  WS02006111           JUNCTION     0.22     0.38     7.09     0  01:45        0.38
  WS02006112           JUNCTION     0.84     1.22     7.10     0  01:49        1.21
  WS02006113           JUNCTION     0.33     0.52     7.41     0  01:43        0.51
  WS02006115           JUNCTION     0.56     0.91     7.05     0  01:46        0.91
  WS02006116           JUNCTION     0.64     0.99     7.03     0  01:47        0.99
  WS02006230           JUNCTION     0.73     1.74     8.48     0  01:38        1.27
  WS02006231           JUNCTION     0.49     1.51     8.63     0  01:38        0.93
  WS02006232           JUNCTION     0.61     1.53     8.56     0  01:38        1.04
  WS02006234           JUNCTION     0.53     1.32     8.47     0  01:38        0.94
  WS02006235           JUNCTION     0.55     1.25     8.41     0  01:38        0.93
  WS02006238           JUNCTION     0.58     1.27     8.42     0  01:38        0.95
  WS02006240           JUNCTION     0.46     1.29     8.58     0  01:38        0.84
  WS02006242           JUNCTION     0.50     1.55     8.82     0  01:38        0.89
  WS02006243           JUNCTION     0.37     1.48     8.90     0  01:38        0.77
  WS02006245           JUNCTION     0.32     1.21     8.70     0  01:39        0.73
  WS02006247           JUNCTION     0.33     1.47     8.97     0  01:38        0.73
  WS02006248           JUNCTION     0.28     0.70     8.29     0  01:39        0.66
  WS02006249           JUNCTION     0.30     0.67     8.27     0  01:40        0.67
  WS02006239           JUNCTION     0.53     1.61     8.82     0  01:38        0.90
  WS02006251           JUNCTION     0.31     0.74     8.41     0  01:40        0.72
  WS02006252           JUNCTION     0.27     0.59     8.84     0  02:02        0.59
  WS02006253           JUNCTION     0.34     0.76     8.40     0  01:39        0.76
  WS02006256           JUNCTION     1.09     1.23     8.16     0  01:38        1.22
  WS02004138           JUNCTION     0.10     0.17     7.42     0  06:26        0.17
  WS02004407           JUNCTION     0.22     0.33     6.65     0  01:47        0.33
  WS02006228           JUNCTION     0.76     1.26     7.91     0  01:39        1.24
  WS02006229           JUNCTION     0.74     1.28     7.98     0  01:39        1.28
  WS02006280           JUNCTION     0.09     0.19     8.46     0  01:42        0.19
  WS02006284           JUNCTION     0.40     0.54     8.94     0  01:42        0.54
  WS02006287           JUNCTION     0.12     0.28     9.23     0  01:42        0.28
  WSF200               JUNCTION     0.21     0.33     5.56     0  01:51        0.33
  HS02004901           JUNCTION     0.15     0.28    10.10     0  01:39        0.28
  HS02004881           JUNCTION     0.01     0.03     9.06     0  01:43        0.03
  HS02004876           JUNCTION     0.06     0.12     9.15     0  01:43        0.12
  HS02004870           JUNCTION     0.02     0.06     9.35     0  01:43        0.06
  HS02004862           JUNCTION     0.03     0.07     9.45     0  01:44        0.07
  HS02004856           JUNCTION     0.09     0.12     9.55     0  01:44        0.12
  HS02004852           JUNCTION     0.02     0.04     9.56     0  01:52        0.04
  HS02004848           JUNCTION     0.02     0.04     9.64     0  01:51        0.04
  HS02004842           JUNCTION     0.34     0.37     9.64     0  01:51        0.37
  HS02004837           JUNCTION     0.04     0.06     9.64     0  01:51        0.06
  HS02004830           JUNCTION     0.05     0.08     9.55     0  01:45        0.08
  HS02004824           JUNCTION     0.03     0.06     9.46     0  01:54        0.06
  HS02004817           JUNCTION     0.46     0.59     9.43     0  01:43        0.59
  HS02004807           JUNCTION     0.15     0.26     9.43     0  01:43        0.26
  HS02004802           JUNCTION     0.18     0.30     9.42     0  01:43        0.29
  HS02004799           JUNCTION     0.15     0.33     9.54     0  01:40        0.33
  HS02004792           JUNCTION     0.05     0.14     9.66     0  01:40        0.14
  HS02004788           JUNCTION     0.04     0.10    10.00     0  01:40        0.10
  HS02004785           JUNCTION     0.07     0.17    10.07     0  01:40        0.17
  HS02004777           JUNCTION     0.17     0.30    10.10     0  01:39        0.30
  HS02004770           JUNCTION     0.14     0.27    10.10     0  01:39        0.27
  HS02004480           JUNCTION     0.11     0.27     9.51     0  01:41        0.27
  HS02004479           JUNCTION     0.15     0.30     9.51     0  01:40        0.30
  HS02004478           JUNCTION     0.08     0.18     9.41     0  01:42        0.18
  YS02001745           JUNCTION     0.69     0.87     8.39     0  03:42        0.87
  YS02001748           JUNCTION     1.08     2.27     9.35     0  02:12        1.31
  YS02001751           JUNCTION     1.27     2.20     9.08     0  01:58        1.53
  YS02001754           JUNCTION     1.52     2.18     8.79     0  02:12        1.80
  YS02001762           JUNCTION     1.72     2.08     8.48     0  02:12        2.02
  YS02001765           JUNCTION     1.67     2.02     8.47     0  02:12        1.97
  YS02001767           JUNCTION     1.64     1.96     8.45     0  02:12        1.93
  YS02001770           JUNCTION     1.64     1.95     8.44     0  02:05        1.90
  YS02001774           JUNCTION     1.71     2.03     8.45     0  02:06        1.96
  YS02001779           JUNCTION     1.45     1.68     8.37     0  02:04        1.68
  YS02001882           JUNCTION     0.58     1.30     8.01     0  02:36        1.29
  YS02001884           JUNCTION     0.68     1.40     8.01     0  02:35        1.39
  YS02001759           JUNCTION     1.76     2.08     8.45     0  02:13        2.06
  YS02001887           JUNCTION     0.76     1.48     8.02     0  02:36        1.47
  YS02001890           JUNCTION     0.79     1.50     8.01     0  02:36        1.50
  YS02001898           JUNCTION     0.55     1.26     7.99     0  02:36        1.26
  YS02001901           JUNCTION     0.67     1.38     7.99     0  02:36        1.37
  YS02001904           JUNCTION     0.65     1.36     7.99     0  02:36        1.35
  YS02001907           JUNCTION     0.98     1.70     7.98     0  02:36        1.69
  YS02001910           JUNCTION     0.77     1.48     7.99     0  02:35        1.48
  YS02001915           JUNCTION     0.57     1.28     8.00     0  02:36        1.27
  YS02001918           JUNCTION     0.29     0.92     7.99     0  02:36        0.92
  YS02001619           JUNCTION     1.24     1.61     8.54     0  02:07        1.46
  YS02001629           JUNCTION     1.59     1.85     8.40     0  02:08        1.85
  YS02001641           JUNCTION     1.69     1.96     8.40     0  02:14        1.93
  YS02001644           JUNCTION     1.69     1.92     8.35     0  02:06        1.92
  YS02001652           JUNCTION     1.54     2.16     8.76     0  02:04        2.01
  YS02001655           JUNCTION     1.30     2.20     9.05     0  01:55        1.90
  YS02001920           JUNCTION     0.38     0.98     7.98     0  02:36        0.98
  YS02001923           JUNCTION     0.21     0.73     7.99     0  02:36        0.72
  YS02001926           JUNCTION     0.25     0.54     7.99     0  02:35        0.54
  YS02001929           JUNCTION     0.12     0.29     7.99     0  02:37        0.29
  YS02001658           JUNCTION     1.03     2.30     9.44     0  02:08        2.26
  YS02001661           JUNCTION     0.80     2.46     9.86     0  02:36        1.85
  YS02001664           JUNCTION     0.35     0.57     8.50     0  02:30        0.56
  YS02001622           JUNCTION     1.26     1.62     8.52     0  02:08        1.49
  YS02001633           JUNCTION     1.69     1.98     8.43     0  02:14        1.93
  YS02001649           JUNCTION     1.73     2.05     8.44     0  02:09        2.05
  YS02001757           JUNCTION     1.85     2.21     8.47     0  02:12        2.16
  YS02001895           JUNCTION     0.55     1.25     8.00     0  02:36        1.25
  YS02001625           JUNCTION     1.55     1.78     8.38     0  02:08        1.78
  YS02163301           JUNCTION     1.62     1.92     8.44     0  02:12        1.88
  YS02163601           JUNCTION     1.74     2.04     8.44     0  02:14        1.98
  YS02164001           JUNCTION     1.67     1.97     8.43     0  02:14        1.91
  YS02001647           JUNCTION     1.52     1.82     8.43     0  02:09        1.80
  YSB1154              JUNCTION     0.29     0.45     9.51     0  01:40        0.45
  YSB6556              JUNCTION     0.18     0.34     9.51     0  01:40        0.34
  YSB1174              JUNCTION     0.24     0.40     9.51     0  01:41        0.40
  YSB1171              JUNCTION     0.44     0.61     9.51     0  01:40        0.61
  YS02006553           JUNCTION     0.98     1.69     7.97     0  02:36        1.68
  YS02006561           JUNCTION     0.33     0.88     7.54     0  02:36        0.87
  YS02006556           JUNCTION     0.95     1.64     7.95     0  02:36        1.63
  YS02006558           JUNCTION     0.99     1.68     7.95     0  02:36        1.67
  YS02001783           JUNCTION     0.62     1.35     7.49     0  02:20        1.29
  YS02001784           JUNCTION     0.64     1.61     7.68     0  02:20        1.25
  YS02001786           JUNCTION     0.58     1.53     7.56     0  02:20        1.14
  YS02001788           JUNCTION     0.53     1.68     7.66     0  02:20        1.04
  YS02001790           JUNCTION     0.69     1.69     7.33     0  02:20        1.23
  YS02001791           JUNCTION     0.69     1.38     6.85     0  02:20        1.24
  YS02001793           JUNCTION     0.99     1.80     6.63     0  02:34        1.79
  WS02004139           JUNCTION     0.54     0.65     5.56     0  03:38        0.65
  WSC                  OUTFALL      0.28     0.34     1.01     0  03:37        0.34
  3                    OUTFALL      0.13     0.22     6.22     0  01:39        0.22
  4                    OUTFALL      0.05     0.17     7.17     0  01:40        0.17
  5                    OUTFALL      0.00     0.00     5.00     0  00:00        0.00
  JK-storage           STORAGE      3.76     5.80     6.60     0  02:21        5.80
  CC-storage           STORAGE      1.04     1.39     8.39     0  03:37        1.39
  XR-storage           STORAGE      7.53     7.72     5.72     0  01:38        7.72
  
  
  *******************
  Node Inflow Summary
  *******************
  
  -------------------------------------------------------------------------------------------------
                                  Maximum  Maximum                  Lateral       Total        Flow
                                  Lateral    Total  Time of Max      Inflow      Inflow     Balance
                                   Inflow   Inflow   Occurrence      Volume      Volume       Error
  Node                 Type           LPS      LPS  days hr:min    10^6 ltr    10^6 ltr     Percent
  -------------------------------------------------------------------------------------------------
  WS02001211           JUNCTION      7.35   293.95     0  03:44       0.207        5.73       0.635
  WS02001212           JUNCTION      0.00   295.50     0  03:44           0         5.7       0.315
  WS02001213           JUNCTION      0.00   296.93     0  03:44           0        5.68       0.401
  WS02003069           JUNCTION      0.32   725.16     0  03:35     0.00902        12.5       0.185
  WS02003072           JUNCTION      0.00   724.91     0  03:35           0        12.5       0.238
  WS02003073           JUNCTION      1.82   726.89     0  03:36      0.0514        12.5       0.258
  WS02003060           JUNCTION     16.53   725.01     0  03:34       0.466        12.6       0.178
  WS02003066           JUNCTION      0.00   676.33     0  01:51           0        6.47       0.042
  WS02003059           JUNCTION      0.00   299.70     0  03:43           0        5.66       0.644
  WS02003067           JUNCTION      0.00   676.22     0  01:50           0        6.48       0.097
  WS02004401           JUNCTION      0.00   682.00     0  01:47           0        6.63       0.224
  WS02004402           JUNCTION      0.00   680.18     0  01:46           0        6.62       0.220
  WS02004403           JUNCTION      0.00   680.04     0  01:47           0         6.6       0.207
  WS02004404           JUNCTION      0.16   680.91     0  01:47     0.00457         6.6       0.167
  WS02004406           JUNCTION      0.00   680.44     0  01:47           0        6.57       0.397
  WS02004409           JUNCTION      0.00   679.95     0  01:47           0        6.54       0.126
  WS02004410           JUNCTION      0.00   677.63     0  01:48           0        6.53       0.157
  WS02004411           JUNCTION      0.00   676.48     0  01:48           0        6.52       0.171
  WS02004412           JUNCTION      0.00   676.34     0  01:50           0        6.51       0.199
  WS02004413           JUNCTION      0.00   676.31     0  01:50           0         6.5       0.323
  WS02004405           JUNCTION      0.04   680.79     0  01:47     0.00107        6.59       0.245
  WS02006109           JUNCTION      1.23   690.56     0  01:39      0.0347        6.65       0.239
  WS02006110           JUNCTION      0.00   690.59     0  01:39           0        6.64       0.218
  WS02006111           JUNCTION      0.00   703.02     0  01:43           0        6.62       0.032
  WS02006112           JUNCTION     14.90   689.06     0  01:39      0.0621        6.68       0.300
  WS02006113           JUNCTION      0.00   690.30     0  01:39           0        6.62       0.076
  WS02006115           JUNCTION      0.00   691.16     0  01:39           0        6.66       0.216
  WS02006116           JUNCTION      0.00   682.70     0  01:44           0        6.64       0.147
  WS02006230           JUNCTION     10.28   393.20     0  03:20        0.29        4.78       0.167
  WS02006231           JUNCTION      0.00   382.43     0  03:20           0        4.49       0.083
  WS02006232           JUNCTION      0.00   382.42     0  03:20           0         4.5       0.232
  WS02006234           JUNCTION      0.00   382.28     0  03:20           0         4.5       0.073
  WS02006235           JUNCTION      0.00   382.25     0  03:20           0        4.54       0.124
  WS02006238           JUNCTION      0.00   291.95     0  03:21           0        1.92       0.183
  WS02006240           JUNCTION      0.00   316.30     0  01:37           0         1.9       0.157
  WS02006242           JUNCTION      0.00   337.95     0  01:37           0         1.9       0.187
  WS02006243           JUNCTION      0.00   365.78     0  01:37           0        1.89      -0.129
  WS02006245           JUNCTION      0.00   379.46     0  01:37           0        1.89       0.109
  WS02006247           JUNCTION      0.00   386.56     0  01:37           0        1.89       0.013
  WS02006248           JUNCTION      0.00   395.50     0  01:36           0        1.89      -0.031
  WS02006249           JUNCTION      0.00   487.80     0  01:40           0        3.02       0.035
  WS02006239           JUNCTION      0.00   291.87     0  03:21           0        1.92       0.231
  WS02006251           JUNCTION      0.08   495.48     0  01:40     0.00217        3.02      -0.002
  WS02006252           JUNCTION      0.00   400.00     0  01:35           0        2.66       0.007
  WS02006253           JUNCTION      2.03    76.41     0  01:43     0.00803        0.36      -0.058
  WS02006256           JUNCTION      0.00   600.00     0  01:20           0        7.74       0.030
  WS02004138           JUNCTION      0.00   285.00     0  03:30           0        5.56       0.084
  WS02004407           JUNCTION      0.00   680.49     0  01:47           0        6.54       0.058
  WS02006228           JUNCTION      0.00   689.22     0  01:39           0        6.63       0.160
  WS02006229           JUNCTION      0.00   700.00     0  01:38           0        6.64       0.107
  WS02006280           JUNCTION      0.00   366.27     0  01:42           0        1.87       0.004
  WS02006284           JUNCTION      0.10   366.31     0  01:42      0.0027        1.87       0.025
  WS02006287           JUNCTION      0.00   366.22     0  01:42           0        1.87       0.037
  WSF200               JUNCTION      0.00   676.36     0  01:51           0        6.47       0.031
  HS02004901           JUNCTION     18.12    18.12     0  01:36      0.0747       0.075       2.403
  HS02004881           JUNCTION      7.67    74.61     0  01:43      0.0326       0.352       0.095
  HS02004876           JUNCTION     13.40    67.33     0  01:43      0.0628        0.32       0.168
  HS02004870           JUNCTION     14.05    54.07     0  01:43      0.0618       0.257       0.042
  HS02004862           JUNCTION     12.60    40.55     0  01:44      0.0678       0.196       0.088
  HS02004856           JUNCTION     10.50    27.98     0  01:43      0.0465       0.129       1.126
  HS02004852           JUNCTION      0.00    17.93     0  01:51           0       0.083       0.063
  HS02004848           JUNCTION     27.80    27.80     0  01:53       0.149       0.149       0.030
  HS02004842           JUNCTION      0.00    10.09     0  01:58           0      0.0794      19.593
  HS02004837           JUNCTION     29.79    38.22     0  01:51       0.287       0.353       0.230
  HS02004830           JUNCTION      0.15    38.36     0  01:51     0.00423       0.344       0.360
  HS02004824           JUNCTION     33.49    71.74     0  01:54       0.195       0.538       0.100
  HS02004817           JUNCTION      0.60    72.33     0  01:54      0.0169       0.554       3.101
  HS02004807           JUNCTION     26.14    95.63     0  01:52       0.114       0.651       0.671
  HS02004802           JUNCTION      0.00    95.92     0  01:53           0       0.649       0.611
  HS02004799           JUNCTION     20.64   230.90     0  01:40      0.0921        1.05       0.260
  HS02004792           JUNCTION     88.99   210.32     0  01:39       0.391       0.955       0.043
  HS02004788           JUNCTION     29.98   122.04     0  01:40       0.175       0.565       0.069
  HS02004785           JUNCTION      0.15    92.14     0  01:39     0.00423       0.391       0.124
  HS02004777           JUNCTION      0.03    92.19     0  01:38    0.000846       0.392       1.341
  HS02004770           JUNCTION     74.74    92.54     0  01:38        0.32       0.393       0.794
  HS02004480           JUNCTION      0.00   273.97     0  01:41           0        1.24       0.088
  HS02004479           JUNCTION      0.00    43.17     0  01:41           0       0.201       0.362
  HS02004478           JUNCTION      0.00   366.17     0  01:42           0        1.87       0.020
  YS02001745           JUNCTION    221.95   419.97     0  02:11        2.35        2.36       0.494
  YS02001748           JUNCTION      0.04   614.74     0  02:11     0.00127        2.35       0.972
  YS02001751           JUNCTION      0.01   460.18     0  01:58     0.00031        2.31       1.031
  YS02001754           JUNCTION      0.26   257.89     0  02:12     0.00733         2.3       1.075
  YS02001762           JUNCTION      0.00   280.84     0  02:08           0        1.93       1.091
  YS02001765           JUNCTION      0.00   278.69     0  02:08           0        1.93       1.260
  YS02001767           JUNCTION      0.54   276.67     0  02:17      0.0151        1.95       1.855
  YS02001770           JUNCTION    273.83   274.75     0  02:27        2.63         2.7       1.178
  YS02001774           JUNCTION      0.00   223.20     0  03:43           0       0.797       3.212
  YS02001779           JUNCTION      0.01   223.77     0  03:43    0.000141       0.766       2.009
  YS02001882           JUNCTION      0.00    20.39     0  02:23           0      0.0207      10.724
  YS02001884           JUNCTION      0.00    34.81     0  02:21           0      0.0568      11.487
  YS02001759           JUNCTION    262.15   540.70     0  02:15        2.42        4.26       0.537
  YS02001887           JUNCTION    333.12   335.59     0  02:24        2.79        2.82       0.289
  YS02001890           JUNCTION      0.00   337.11     0  02:24           0        2.77       0.318
  YS02001898           JUNCTION      0.00   348.37     0  02:24           0        2.76       0.098
  YS02001901           JUNCTION      0.00   340.22     0  02:25           0        2.76       0.235
  YS02001904           JUNCTION      0.00   338.73     0  02:25           0        2.76       0.212
  YS02001907           JUNCTION      0.00   605.07     0  02:39           0        6.14       0.389
  YS02001910           JUNCTION      0.00   319.89     0  03:05           0        3.39       0.339
  YS02001915           JUNCTION    195.26   316.92     0  02:52        1.97         3.4       0.162
  YS02001918           JUNCTION      0.00   146.04     0  02:51           0        1.43       0.123
  YS02001619           JUNCTION    191.04   191.04     0  02:29        1.95        1.95       0.604
  YS02001629           JUNCTION      0.00   229.12     0  01:59           0        1.81       1.553
  YS02001641           JUNCTION      0.00   421.96     0  02:07           0        4.03       0.523
  YS02001644           JUNCTION    211.51   837.07     0  03:02        2.26        9.85       0.263
  YS02001652           JUNCTION      0.00   299.80     0  02:05           0        2.03       1.126
  YS02001655           JUNCTION      0.15   487.29     0  02:06     0.00434        2.05       1.171
  YS02001920           JUNCTION      2.87   142.67     0  02:51      0.0809        1.44       0.197
  YS02001923           JUNCTION      0.04   118.34     0  02:49     0.00106        1.36       0.043
  YS02001926           JUNCTION      0.05   132.47     0  02:50     0.00147        1.36       0.234
  YS02001929           JUNCTION    105.11   105.11     0  02:59        1.36        1.36       0.037
  YS02001658           JUNCTION      0.00   656.77     0  02:08           0        2.09       1.119
  YS02001661           JUNCTION      0.00   639.06     0  02:30           0        2.71      -0.099
  YS02001664           JUNCTION    239.63   373.53     0  02:30        2.08        2.71       0.271
  YS02001622           JUNCTION      0.00   200.35     0  01:59           0        1.94       1.630
  YS02001633           JUNCTION    215.43   423.01     0  02:07        2.33        4.09       0.785
  YS02001649           JUNCTION      0.00   863.47     0  02:26           0        6.31       0.585
  YS02001757           JUNCTION      0.00  1601.53     0  02:26           0         9.2       0.997
  YS02001895           JUNCTION      0.00   337.64     0  02:24           0        2.77       0.178
  YS02001625           JUNCTION      0.00   229.26     0  01:59           0        1.91       2.087
  YS02163301           JUNCTION      0.00   229.13     0  02:07           0        1.79       1.344
  YS02163601           JUNCTION      0.11   422.91     0  02:07      0.0031        4.04       0.745
  YS02164001           JUNCTION      0.00   422.62     0  02:07           0        4.02       0.494
  YS02001647           JUNCTION      0.00   619.77     0  02:27           0        5.38       0.516
  YSB1154              JUNCTION     23.84    23.84     0  01:41       0.112       0.113       1.300
  YSB6556              JUNCTION      0.00    24.03     0  01:42           0       0.113       1.114
  YSB1174              JUNCTION     19.99    19.99     0  01:36       0.081      0.0815       1.600
  YSB1171              JUNCTION      0.00    43.65     0  01:40           0         0.2       3.262
  YS02006553           JUNCTION      0.00   605.31     0  02:19           0        6.13       0.252
  YS02006561           JUNCTION      0.00   889.78     0  02:19           0        8.64       0.007
  YS02006556           JUNCTION      0.00   604.97     0  02:39           0        6.14       0.180
  YS02006558           JUNCTION    286.64   889.76     0  02:19        2.56        8.67       0.059
  YS02001783           JUNCTION      0.00   888.71     0  02:19           0        8.64       0.025
  YS02001784           JUNCTION      1.06   889.63     0  02:19      0.0299        8.66       0.041
  YS02001786           JUNCTION      0.06   889.66     0  02:18     0.00159        8.66       0.036
  YS02001788           JUNCTION      0.07   889.03     0  02:18       0.002        8.66       0.021
  YS02001790           JUNCTION      0.15   891.59     0  02:18     0.00437        8.66       0.028
  YS02001791           JUNCTION      0.00   935.09     0  02:16           0        8.66       0.010
  YS02001793           JUNCTION      0.00   890.42     0  02:16           0        8.66       0.003
  WS02004139           JUNCTION      0.32   285.32     0  03:33     0.00905        5.56       0.674
  WSC                  OUTFALL       0.00   727.17     0  03:37           0        12.5       0.000
  3                    OUTFALL       0.00   556.96     0  01:39           0         5.1       0.000
  4                    OUTFALL       0.00   252.55     0  01:40           0        1.13       0.000
  5                    OUTFALL       0.00     0.00     0  00:00           0           0       0.000 ltr
  JK-storage           STORAGE       0.00   876.76     0  02:36           0        8.81      -2.434
  CC-storage           STORAGE       0.00  1601.57     0  02:26           0        6.57       0.390
  XR-storage           STORAGE     560.10   560.10     0  02:30        9.63        10.2      -0.000
  
  
  **********************
  Node Surcharge Summary
  **********************
  
  Surcharging occurs when water rises above the top of the highest conduit.
  ---------------------------------------------------------------------
                                               Max. Height   Min. Depth
                                   Hours       Above Crown    Below Rim
  Node                 Type      Surcharged         Meters       Meters
  ---------------------------------------------------------------------
  WS02004402           JUNCTION        0.11          0.008        1.732
  WS02004403           JUNCTION        0.15          0.010        2.020
  WS02004404           JUNCTION        0.66          0.244        2.536
  WS02004406           JUNCTION        0.48          0.046        2.404
  WS02004405           JUNCTION        0.58          0.073        2.727
  WS02006109           JUNCTION        1.95          0.348        1.472
  WS02006110           JUNCTION        1.20          0.147        1.703
  WS02006112           JUNCTION        1.57          0.219        1.461
  WS02006230           JUNCTION        0.67          0.655        0.915
  WS02006231           JUNCTION        0.95          0.796        0.734
  WS02006232           JUNCTION        1.85          0.826        0.654
  WS02006234           JUNCTION        1.72          0.597        0.643
  WS02006235           JUNCTION        1.80          0.540        0.750
  WS02006238           JUNCTION        1.82          0.553        0.877
  WS02006240           JUNCTION        1.73          0.579        0.811
  WS02006242           JUNCTION        1.77          0.820        0.000
  WS02006243           JUNCTION        1.05          0.770        0.000
  WS02006245           JUNCTION        0.47          0.504        0.346
  WS02006247           JUNCTION        0.56          0.760        0.000
  WS02006239           JUNCTION        1.76          0.873        0.417
  WS02006252           JUNCTION        1.82          0.193        0.907
  WS02006228           JUNCTION        1.94          0.427        1.773
  YS02001748           JUNCTION        5.48          1.190        0.000
  YS02001751           JUNCTION        5.70          1.200        0.000
  YS02001754           JUNCTION        5.99          1.134        0.016
  YS02001762           JUNCTION        6.14          1.081        0.069
  YS02001765           JUNCTION        6.13          1.024        0.076
  YS02001767           JUNCTION        6.12          0.958        0.072
  YS02001770           JUNCTION        6.11          0.920        0.000
  YS02001774           JUNCTION        6.14          1.029        0.021
  YS02001779           JUNCTION        5.97          0.680        0.000
  YS02001882           JUNCTION        0.68          0.297        0.533
  YS02001884           JUNCTION        0.74          0.338        0.532
  YS02001759           JUNCTION        6.15          1.083        0.127
  YS02001887           JUNCTION        0.94          0.428        0.522
  YS02001890           JUNCTION        1.03          0.455        0.305
  YS02001898           JUNCTION        0.60          0.226        0.514
  YS02001901           JUNCTION        0.81          0.383        0.487
  YS02001904           JUNCTION        0.78          0.356        0.494
  YS02001907           JUNCTION        1.68          0.686        0.264
  YS02001910           JUNCTION        1.11          0.483        0.617
  YS02001915           JUNCTION        0.66          0.280        0.720
  YS02001619           JUNCTION        5.74          0.610        0.000
  YS02001629           JUNCTION        5.74          0.470        0.000
  YS02001641           JUNCTION        6.13          0.964        0.136
  YS02001644           JUNCTION        6.13          0.920        0.000
  YS02001652           JUNCTION        6.03          1.130        0.000
  YS02001655           JUNCTION        5.76          1.200        0.000
  YS02001658           JUNCTION        5.54          1.300        0.000
  YS02001661           JUNCTION        0.22          1.390        0.000
  YS02001622           JUNCTION        5.80          0.620        0.000
  YS02001633           JUNCTION        6.12          0.957        0.103
  YS02001649           JUNCTION        6.14          1.050        0.000
  YS02001757           JUNCTION        6.19          1.210        0.000
  YS02001895           JUNCTION        0.63          0.250        0.500
  YS02001625           JUNCTION        6.09          0.780        0.000
  YS02163301           JUNCTION        6.11          0.924        0.106
  YS02163601           JUNCTION        6.15          1.038        0.042
  YS02164001           JUNCTION        6.12          0.969        0.131
  YS02001647           JUNCTION        6.05          0.824        0.076
  YS02006553           JUNCTION        1.75          0.688        0.502
  YS02006561           JUNCTION        0.36          0.077        1.073
  YS02006556           JUNCTION        1.42          0.599        0.751
  YS02006558           JUNCTION        1.37          0.578        0.822
  YS02001783           JUNCTION        1.22          0.551        1.049
  YS02001784           JUNCTION        1.18          0.807        0.683
  YS02001786           JUNCTION        1.10          0.730        0.700
  YS02001788           JUNCTION        1.10          0.882        0.598
  YS02001790           JUNCTION        2.48          0.886        0.271
  YS02001791           JUNCTION        2.61          0.575        1.345
  YS02001793           JUNCTION        2.82          0.799        1.801
  
  
  *********************
  Node Flooding Summary
  *********************
  
  Flooding refers to all water that overflows a node, whether it ponds or not.
  --------------------------------------------------------------------------
                                                             Total   Maximum
                                 Maximum   Time of Max       Flood    Ponded
                        Hours       Rate    Occurrence      Volume     Depth
  Node                 Flooded       LPS   days hr:min    10^6 ltr    Meters
  --------------------------------------------------------------------------
  WS02006242              0.01     23.59      0  01:38       0.000     0.000
  WS02006243              0.01    108.92      0  01:38       0.000     0.000
  WS02006247              0.01     49.25      0  01:38       0.000     0.000
  YS02001748              0.01    197.90      0  02:13       0.000     0.000
  YS02001751              0.01    152.80      0  01:58       0.000     0.000
  YS02001770              0.01      7.06      0  02:06       0.000     0.000
  YS02001779              3.18    223.61      0  03:43       0.745     0.000
  YS02001619              0.01     45.37      0  02:09       0.000     0.000
  YS02001629              0.01     36.99      0  02:09       0.001     0.000
  YS02001644              5.37    837.07      0  03:02       8.012     0.000
  YS02001652              0.01     74.41      0  02:06       0.000     0.000
  YS02001655              0.01    325.46      0  02:04       0.002     0.000
  YS02001658              0.01    397.41      0  02:09       0.001     0.000
  YS02001661              0.01    170.61      0  02:41       0.001     0.000
  YS02001622              0.01     47.25      0  02:09       0.000     0.000
  YS02001649              0.08     49.68      0  02:43       0.005     0.000
  YS02001757              0.01     14.92      0  02:13       0.000     0.000
  YS02001625              0.74     43.46      0  02:36       0.078     0.000
  JK-storage              2.15    276.73      0  02:36       1.294     0.000
  XR-storage              4.23    560.10      0  02:30       3.922     0.000
  
  
  **********************
  Storage Volume Summary
  **********************
  
  --------------------------------------------------------------------------------------------------
                         Average     Avg  Evap Exfil       Maximum     Max    Time of Max    Maximum
                          Volume    Pcnt  Pcnt  Pcnt        Volume    Pcnt     Occurrence    Outflow
  Storage Unit           1000 m3    Full  Loss  Loss       1000 m3    Full    days hr:min        LPS
  --------------------------------------------------------------------------------------------------
  JK-storage               0.189      65     0     0         0.291     100       0  02:21     600.00
  CC-storage               2.899      18     0     0         3.861      25       0  03:37     400.00
  XR-storage               0.903      97     0     0         0.926     100       0  01:38     285.00
  
  
  ***********************
  Outfall Loading Summary
  ***********************
  
  -----------------------------------------------------------
                         Flow       Avg       Max       Total
                         Freq      Flow      Flow      Volume
  Outfall Node           Pcnt       LPS       LPS    10^6 ltr
  -----------------------------------------------------------
  WSC                  100.00    505.89    727.17      12.503
  3                     90.18    321.89    556.96       5.099
  4                     40.97    172.10    252.55       1.133
  5                      0.00      0.00      0.00       0.000
  -----------------------------------------------------------
  System                57.79    999.88   1478.27      18.735
  
  
  ********************
  Link Flow Summary
  ********************
  
  -----------------------------------------------------------------------------
                                 Maximum  Time of Max   Maximum    Max/    Max/
                                  |Flow|   Occurrence   |Veloc|    Full    Full
  Link                 Type          LPS  days hr:min     m/sec    Flow   Depth
  -----------------------------------------------------------------------------
  WS02003066WSF200     CONDUIT    676.36     0  01:51      3.01    0.11    0.25
  WS02006287WS02006284 CONDUIT    366.21     0  01:42      1.96    0.17    0.29
  WS02006284WS02006280 CONDUIT    366.27     0  01:42      2.20    0.15    0.26
  WS02006280WS02006229 CONDUIT    366.28     0  01:42      3.55    0.08    0.19
  WS02006229WS02006228 CONDUIT    689.22     0  01:39      1.37    2.28    1.00
  WS02006256WS02006235 CONDUIT    158.12     0  01:13      2.30    1.67    1.00
  WS02006253WS02006251 CONDUIT     95.41     0  01:40      0.58    0.29    1.00
  WS02006252WS02006251 CONDUIT    400.28     0  03:12      3.19    1.47    1.00
  WS02006251WS02006249 CONDUIT    487.80     0  01:40      1.31    1.41    0.98
  WS02006249WS02006248 CONDUIT    395.50     0  01:36      1.29    2.17    0.95
  WS02006248WS02006247 CONDUIT    386.56     0  01:37      1.26    0.84    1.00
  WS02006247WS02006245 CONDUIT    379.46     0  01:37      1.21    3.01    1.00
  WS02006245WS02006243 CONDUIT    365.78     0  01:37      1.25    1.08    1.00
  WS02006243WS02006242 CONDUIT    337.95     0  01:37      1.04    0.72    1.00
  WS02006242WS02006240 CONDUIT    316.30     0  01:37      0.87    1.26    1.00
  WS02006240WS02006239 CONDUIT    291.87     0  03:21      0.79    0.92    1.00
  WS02006239WS02006238 CONDUIT    291.95     0  03:21      0.76    0.93    1.00
  WS02006238WS02006235 CONDUIT    291.97     0  03:21      0.91    0.65    1.00
  WS02006235WS02006234 CONDUIT    382.28     0  03:20      0.99    4.03    1.00
  WS02006234WS02006232 CONDUIT    382.42     0  03:20      1.02    0.77    1.00
  WS02006232WS02006231 CONDUIT    382.43     0  03:20      1.02    0.80    1.00
  WS02006231WS02006230 CONDUIT    382.92     0  03:20      1.18    5.81    1.00
  WS02006230WS02006229 CONDUIT    394.05     0  03:21      1.02    8.77    1.00
  WS02006228WS02006109 CONDUIT    689.33     0  01:39      1.37    3.01    1.00
  WS02006116WS02004401 CONDUIT    682.00     0  01:47      0.88    0.94    0.99
  WS02006115WS02006116 CONDUIT    682.70     0  01:44      1.02    0.88    0.92
  WS02006113WS02006111 CONDUIT    703.02     0  01:43      2.64    0.84    0.56
  WS02006112WS02006115 CONDUIT    691.16     0  01:39      0.94    0.41    0.95
  WS02006111WS02006112 CONDUIT    674.38     0  01:39      1.81    0.32    0.73
  WS02006110WS02006113 CONDUIT    690.30     0  01:39      1.58    0.63    0.82
  WS02006109WS02006110 CONDUIT    690.59     0  01:39      1.37    1.33    1.00
  WS02004411WS02004412 CONDUIT    676.34     0  01:50      1.05    0.96    0.77
  WS02004401WS02004402 CONDUIT    680.18     0  01:46      0.87    0.82    1.00
  WS02004413WS02003067 CONDUIT    676.22     0  01:50      1.26    0.29    0.64
  WS02004412WS02004413 CONDUIT    676.31     0  01:50      0.99    0.45    0.85
  WS02004410WS02004411 CONDUIT    676.48     0  01:48      1.05    0.92    0.77
  WS02004409WS02004410 CONDUIT    677.63     0  01:48      1.09    0.88    0.77
  WS02004407WS02004409 CONDUIT    679.95     0  01:47      1.64    0.24    0.55
  WS02004406WS02004407 CONDUIT    680.49     0  01:47      1.22    0.30    0.67
  WS02004405WS02004406 CONDUIT    680.44     0  01:47      0.87    1.34    1.00
  WS02004404WS02004405 CONDUIT    680.75     0  01:47      0.87    6.67    1.00
  WS02004403WS02004404 CONDUIT    680.75     0  01:47      0.87    0.49    1.00
  WS02004402WS02004403 CONDUIT    680.04     0  01:47      0.87    0.98    1.00
  WS02004139WS02001211 CONDUIT    286.61     0  03:44      0.69    0.36    0.52
  WS02004138WS02004139 CONDUIT    285.00     0  03:33      2.95    0.06    0.38
  WS02003067WS02003066 CONDUIT    676.33     0  01:51      1.38    0.22    0.45
  WS02001213WS02003059 CONDUIT    299.70     0  03:43      0.65    0.49    0.69
  WS02001212WS02001213 CONDUIT    296.93     0  03:44      1.19    0.46    0.39
  WS02001211WS02001212 CONDUIT    295.50     0  03:44      0.67    0.23    0.57
  WS02003072WS02003073 CONDUIT    725.07     0  03:36      1.58    1.57    0.43
  WS02003069WS02003072 CONDUIT    724.91     0  03:35      1.49    0.35    0.44
  WS02003060WS02003069 CONDUIT    724.84     0  03:35      1.75    0.28    0.39
  WS02003059WS02003060 CONDUIT    303.61     0  03:42      0.75    0.20    0.59
  HS02004901HS02004770 CONDUIT     17.82     0  01:38      0.06    0.07    0.40
  HS02004876HS02004881 CONDUIT     67.33     0  01:43      0.89    0.72    0.11
  HS02004870HS02004876 CONDUIT     54.05     0  01:43      0.61    0.04    0.13
  HS02004842HS02004848 CONDUIT     10.09     0  01:58      0.05    0.01    0.30
  HS02004837HS02004842 CONDUIT     10.33     0  02:00      0.42    0.01    0.31
  HS02004830HS02004837 CONDUIT     38.21     0  01:51      0.54    0.04    0.10
  HS02004824HS02004830 CONDUIT     38.37     0  01:52      0.57    0.05    0.10
  HS02004817HS02004824 CONDUIT     71.73     0  01:54      0.22    0.03    0.46
  HS02004770HS02004777 CONDUIT     92.16     0  01:38      0.32    0.17    0.41
  HS02004799HS02004480 CONDUIT    230.86     0  01:40      0.78    0.29    0.42
  HS02004792HS02004799 CONDUIT    210.29     0  01:40      0.89    0.13    0.34
  HS02004788HS02004792 CONDUIT    122.00     0  01:40      1.02    0.08    0.17
  HS02004785HS02004788 CONDUIT     92.09     0  01:40      0.67    0.69    0.20
  HS02004777HS02004785 CONDUIT     91.99     0  01:39      0.39    0.11    0.34
  HS02004480HS02004478 CONDUIT    273.64     0  01:41      1.21    1.15    0.32
  HS02004479HS02004480 CONDUIT     43.50     0  01:42      0.30    0.04    0.41
  HS02004862HS02004870 CONDUIT     40.54     0  01:45      0.62    0.04    0.09
  HS02004848HS02004852 CONDUIT     17.93     0  01:51      0.42    0.02    0.06
  HS02004856HS02004862 CONDUIT     27.96     0  01:44      0.46    0.03    0.09
  HS02004852HS02004856 CONDUIT     17.92     0  01:52      0.22    0.02    0.12
  HS02004802HS02004478 CONDUIT     96.20     0  01:53      0.42    0.08    0.34
  HS02004478WS02006287 CONDUIT    366.22     0  01:42      1.67    0.10    0.24
  HS02004817HS02004807 CONDUIT     72.77     0  01:55      0.17    0.04    0.61
  HS02004807HS02004802 CONDUIT     95.92     0  01:53      0.36    0.18    0.39
  YS02001759YS02001757 CONDUIT    541.68     0  02:15      0.69    0.38    1.00
  YS02001762YS02001759 CONDUIT    282.59     0  02:08      0.36    0.33    1.00
  YS02001765YS02001762 CONDUIT    280.84     0  02:08      0.36    0.26    1.00
  YS02001770YS02001767 CONDUIT    276.14     0  02:17      0.42    1.09    1.00
  YS02001774YS02001770 CONDUIT    223.20     0  03:43      0.28    0.14    1.00
  YS02001779YS02001774 CONDUIT    223.76     0  03:43      0.28    0.11    1.00
  YS02001649YS02001757 CONDUIT    863.35     0  02:26      1.10    0.52    1.00
  YS02001767YS02001765 CONDUIT    278.69     0  02:08      0.38    0.35    1.00
  YS02006561YS02001783 CONDUIT    888.71     0  02:19      2.16    0.46    1.00
  YS02001783YS02001784 CONDUIT    888.57     0  02:19      1.77    1.22    1.00
  YS02001784YS02001785 CONDUIT    889.60     0  02:18      1.88    2.07    1.00
  YS02001788YS02001790 CONDUIT    891.43     0  02:18      2.45    0.66    1.00
  YS02001790YS02001791 CONDUIT    935.09     0  02:16      3.06    1.02    1.00
  YS02001791YS02001793 CONDUIT    890.42     0  02:16      6.04    0.38    1.00
  YS02001910YS02001907 CONDUIT    319.82     0  03:05      0.50    0.18    1.00
  YS02001786YS02001788 CONDUIT    888.96     0  02:18      2.32    1.71    1.00
  YS02001915YS02001910 CONDUIT    319.89     0  03:05      0.58    0.16    1.00
  YS02001918YS02001915 CONDUIT    144.30     0  03:07      0.44    0.08    0.96
  YS02001923YS02001920 CONDUIT    139.80     0  02:51      0.68    0.06    0.85
  YS02001926YS02001923 CONDUIT    118.30     0  02:49      0.78    0.17    0.53
  YS02001929YS02001926 CONDUIT    132.41     0  02:50      0.83    0.06    0.42
  YS02001920YS02001918 CONDUIT    146.04     0  02:51      0.67    0.14    0.95
  YS02001629YS02163301 CONDUIT    229.13     0  02:07      0.29    0.28    1.00
  YS02001619YS02001622 CONDUIT    200.35     0  01:59      0.73    0.30    1.00
  YS02001622YS02001625 CONDUIT    229.26     0  01:59      0.36    0.12    1.00
  YS02001625YS02001629 CONDUIT    229.12     0  01:59      0.30    0.11    1.00
  YS02163301YS02001633 CONDUIT    229.36     0  02:07      0.29    0.22    1.00
  YS02163601YS02164001 CONDUIT    422.62     0  02:07      0.54    0.37    1.00
  YS02164001YS02001641 CONDUIT    421.96     0  02:07      0.54    0.58    1.00
  YS02001641YS02001644 CONDUIT    422.41     0  02:07      0.54    1.37    1.00
  YS02001647YS02001649 CONDUIT    620.01     0  02:27      0.79    0.33    1.00
  YS02006553YS02006556 CONDUIT    604.97     0  02:39      0.77    0.52    1.00
  YS02006556YS02006558 CONDUIT    605.18     0  02:39      0.77    0.48    1.00
  YSB6556YSB1171       CONDUIT     24.45     0  01:43      0.09    0.03    0.68
  YS02001907YS02006553 CONDUIT    605.31     0  02:19      0.67    0.71    1.00
  YS02006558YS02006561 CONDUIT    889.78     0  02:19      3.47    1.97    1.00
  YS02001633YS02163601 CONDUIT    422.80     0  02:07      0.54    0.44    1.00
  YS02001644YS02001647 CONDUIT    619.77     0  02:27      0.79    0.36    1.00
  YS02001745YS02001748 CONDUIT    614.70     0  02:11      1.64    0.24    0.94
  YS02001748YS02001751 CONDUIT    460.17     0  01:58      1.23    0.23    1.00
  YS02001751YS02001754 CONDUIT    257.63     0  02:12      1.05    0.12    1.00
  YS02001754YS02001757 CONDUIT    257.92     0  02:12      0.33    0.10    1.00
  YS02001882YS02001884 CONDUIT     20.39     0  02:23      0.15    0.02    1.00
  YS02001884YS02001887 CONDUIT     34.81     0  02:21      0.11    0.05    1.00
  YS02001890YS02001895 CONDUIT    337.64     0  02:24      0.47    0.16    1.00
  YS02001895YS02001898 CONDUIT    348.37     0  02:24      0.59    0.60    1.00
  YS02001898YS02001901 CONDUIT    340.22     0  02:25      0.51    0.22    1.00
  YS02001901YS02001904 CONDUIT    338.73     0  02:25      0.48    0.53    1.00
  YS02001904YS02001907 CONDUIT    337.87     0  02:25      0.43    0.12    1.00
  YS02001887YS02001890 CONDUIT    337.11     0  02:24      0.43    0.58    1.00
  YS02001652YS02001649 CONDUIT    299.94     0  02:05      0.61    0.15    1.00
  YS02001655YS02001652 CONDUIT    299.80     0  02:05      1.11    0.15    1.00
  YS02001658YS02001655 CONDUIT    487.14     0  02:06      1.42    0.21    1.00
  YS02001661YS02001658 CONDUIT    656.77     0  02:08      1.73    0.26    1.00
  YS02001664YS02001661 CONDUIT    639.06     0  02:30      1.62    0.20    0.71
  YSB1154YSB6556       CONDUIT     24.03     0  01:42      0.15    0.04    0.57
  YSB1174YSB1171       CONDUIT     20.05     0  01:36      0.07    0.03    0.68
  YSB1171HS02004479    CONDUIT     43.17     0  01:41      0.54    0.03    0.54
  HS02004881HS02006253 CONDUIT     74.61     0  01:43      2.03    0.01    0.32
  YS02001793JiankangQianchi CONDUIT    876.76     0  02:36     16.38    0.07    1.00
  YS02001757CaochengTiaoxuchi CONDUIT   1601.57     0  02:26      2.71    0.70    1.00
  WSF200WS02003060     CONDUIT    675.96     0  01:49      2.21    0.15    0.32
  1                    CONDUIT    727.17     0  03:37      3.05    0.25    0.34
  2                    CONDUIT    252.55     0  01:40      6.18    0.60    0.56
  3                    CONDUIT    556.96     0  01:39      9.99    0.89    0.74
  4                    CONDUIT      0.00     0  00:00      0.00    0.00    0.00
  CC-Pump-1            PUMP       200.00     0  01:35              1.00
  CC-Pump-2            PUMP       200.00     0  01:35              1.00
  JK-Pump-1            PUMP       300.00     0  01:20              1.00
  JK-Pump-2            PUMP       300.00     0  01:20              1.00
  XR-Pump-1            PUMP        95.00     0  03:30              1.00
  XR-Pump-2            PUMP        95.00     0  00:00              1.00
  XR-Pump-3            PUMP         0.00     0  00:00              0.00
  XR-Pump-4            PUMP        95.00     0  00:00              1.00
  
  
  ***************************
  Flow Classification Summary
  ***************************
  
  -------------------------------------------------------------------------------------
                      Adjusted    ---------- Fraction of Time in Flow Class ---------- 
                       /Actual         Up    Down  Sub   Sup   Up    Down  Norm  Inlet 
  Conduit               Length    Dry  Dry   Dry   Crit  Crit  Crit  Crit  Ltd   Ctrl  
  -------------------------------------------------------------------------------------
  WS02003066WSF200        1.00   0.08  0.00  0.00  0.00  0.92  0.00  0.00  0.61  0.00
  WS02006287WS02006284    1.00   0.02  0.02  0.00  0.46  0.50  0.00  0.00  0.72  0.00
  WS02006284WS02006280    1.00   0.03  0.00  0.00  0.00  0.00  0.00  0.97  0.00  0.00
  WS02006280WS02006229    1.00   0.03  0.00  0.00  0.00  0.00  0.00  0.97  0.00  0.00
  WS02006229WS02006228    1.00   0.00  0.00  0.00  1.00  0.00  0.00  0.00  0.00  0.00
  WS02006256WS02006235    1.00   0.03  0.00  0.00  0.97  0.00  0.00  0.00  0.00  0.00
  WS02006253WS02006251    1.00   0.01  0.01  0.00  0.97  0.00  0.01  0.00  0.00  0.00
  WS02006252WS02006251    1.00   0.06  0.00  0.00  0.00  0.00  0.93  0.00  0.00  0.00
  WS02006251WS02006249    1.00   0.00  0.00  0.00  1.00  0.00  0.00  0.00  0.70  0.00
  WS02006249WS02006248    1.00   0.00  0.00  0.00  0.46  0.00  0.54  0.00  0.00  0.00
  WS02006248WS02006247    1.00   0.00  0.00  0.00  0.99  0.00  0.00  0.01  0.58  0.00
  WS02006247WS02006245    1.00   0.00  0.00  0.00  0.97  0.00  0.00  0.03  0.00  0.00
  WS02006245WS02006243    1.00   0.01  0.00  0.00  0.96  0.00  0.00  0.04  0.12  0.00
  WS02006243WS02006242    1.00   0.01  0.00  0.00  0.97  0.00  0.00  0.02  0.02  0.00
  WS02006242WS02006240    1.00   0.01  0.02  0.00  0.97  0.00  0.00  0.00  0.00  0.00
  WS02006240WS02006239    1.00   0.03  0.00  0.00  0.97  0.00  0.00  0.00  0.00  0.00
  WS02006239WS02006238    1.00   0.03  0.00  0.00  0.97  0.00  0.00  0.00  0.00  0.00
  WS02006238WS02006235    1.00   0.03  0.00  0.00  0.97  0.00  0.00  0.00  0.00  0.00
  WS02006235WS02006234    1.00   0.03  0.00  0.00  0.97  0.00  0.01  0.00  0.00  0.00
  WS02006234WS02006232    1.00   0.03  0.00  0.00  0.97  0.00  0.00  0.00  0.00  0.00
  WS02006232WS02006231    1.00   0.03  0.00  0.00  0.97  0.00  0.00  0.00  0.00  0.00
  WS02006231WS02006230    1.00   0.03  0.00  0.00  0.46  0.00  0.51  0.00  0.00  0.00
  WS02006230WS02006229    1.00   0.00  0.00  0.00  0.99  0.00  0.00  0.01  0.00  0.00
  WS02006228WS02006109    1.00   0.00  0.00  0.00  1.00  0.00  0.00  0.00  0.00  0.00
  WS02006116WS02004401    1.00   0.02  0.00  0.00  0.98  0.00  0.00  0.00  0.00  0.00
  WS02006115WS02006116    1.00   0.02  0.00  0.00  0.95  0.00  0.00  0.03  0.00  0.00
  WS02006113WS02006111    1.00   0.01  0.00  0.00  0.01  0.98  0.00  0.00  0.17  0.00
  WS02006112WS02006115    1.00   0.01  0.01  0.00  0.98  0.00  0.00  0.00  0.00  0.00
  WS02006111WS02006112    1.00   0.01  0.00  0.00  0.98  0.00  0.00  0.00  0.85  0.00
  WS02006110WS02006113    1.00   0.00  0.01  0.00  0.99  0.00  0.00  0.00  0.00  0.00
  WS02006109WS02006110    1.00   0.00  0.00  0.00  1.00  0.00  0.00  0.00  0.00  0.00
  WS02004411WS02004412    1.00   0.06  0.00  0.00  0.94  0.00  0.00  0.00  0.00  0.00
  WS02004401WS02004402    1.00   0.02  0.00  0.00  0.98  0.00  0.00  0.00  0.03  0.00
  WS02004413WS02003067    1.00   0.06  0.01  0.00  0.00  0.00  0.93  0.00  0.00  0.00
  WS02004412WS02004413    1.00   0.06  0.00  0.00  0.94  0.00  0.00  0.00  0.00  0.00
  WS02004410WS02004411    1.00   0.06  0.00  0.00  0.94  0.00  0.00  0.00  0.00  0.00
  WS02004409WS02004410    1.00   0.06  0.00  0.00  0.94  0.00  0.00  0.00  0.00  0.00
  WS02004407WS02004409    1.00   0.06  0.00  0.00  0.93  0.01  0.00  0.00  0.81  0.00
  WS02004406WS02004407    1.00   0.00  0.06  0.00  0.94  0.00  0.00  0.00  0.00  0.00
  WS02004405WS02004406    1.00   0.00  0.00  0.00  1.00  0.00  0.00  0.00  0.04  0.00
  WS02004404WS02004405    1.00   0.00  0.00  0.00  1.00  0.00  0.00  0.00  0.00  0.00
  WS02004403WS02004404    1.00   0.00  0.02  0.00  0.98  0.00  0.00  0.00  0.04  0.00
  WS02004402WS02004403    1.00   0.02  0.00  0.00  0.98  0.00  0.00  0.00  0.00  0.00
  WS02004139WS02001211    1.00   0.00  0.00  0.00  1.00  0.00  0.00  0.00  0.00  0.00
  WS02004138WS02004139    1.00   0.00  0.21  0.00  0.79  0.00  0.00  0.00  1.00  0.00
  WS02003067WS02003066    1.00   0.07  0.01  0.00  0.92  0.00  0.00  0.00  0.00  0.00
  WS02001213WS02003059    1.00   0.00  0.00  0.00  1.00  0.00  0.00  0.00  0.00  0.00
  WS02001212WS02001213    1.00   0.00  0.00  0.00  0.56  0.00  0.44  0.00  0.00  0.00
  WS02001211WS02001212    1.00   0.00  0.00  0.00  1.00  0.00  0.00  0.00  0.00  0.00
  WS02003072WS02003073    1.00   0.00  0.00  0.00  0.00  0.00  0.00  1.00  0.00  0.00
  WS02003069WS02003072    1.00   0.00  0.00  0.00  1.00  0.00  0.00  0.00  0.19  0.00
  WS02003060WS02003069    1.00   0.00  0.00  0.00  0.99  0.01  0.00  0.00  0.18  0.00
  WS02003059WS02003060    1.00   0.00  0.00  0.00  1.00  0.00  0.00  0.00  0.01  0.00
  HS02004901HS02004770    1.00   0.02  0.00  0.00  0.98  0.00  0.00  0.00  0.00  0.00
  HS02004876HS02004881    1.00   0.00  0.00  0.00  0.88  0.12  0.00  0.00  0.00  0.00
  HS02004870HS02004876    1.00   0.00  0.00  0.00  1.00  0.00  0.00  0.00  0.95  0.00
  HS02004842HS02004848    1.00   0.00  0.02  0.00  0.98  0.00  0.00  0.00  0.58  0.00
  HS02004837HS02004842    1.00   0.00  0.00  0.00  1.00  0.00  0.00  0.00  0.11  0.00
  HS02004830HS02004837    1.00   0.00  0.00  0.00  1.00  0.00  0.00  0.00  0.99  0.00
  HS02004824HS02004830    1.00   0.00  0.00  0.00  1.00  0.00  0.00  0.00  0.00  0.00
  HS02004817HS02004824    1.00   0.00  0.00  0.00  1.00  0.00  0.00  0.00  1.00  0.00
  HS02004770HS02004777    1.00   0.00  0.02  0.00  0.98  0.00  0.00  0.00  0.02  0.00
  HS02004799HS02004480    1.00   0.00  0.01  0.00  0.97  0.00  0.03  0.00  0.00  0.00
  HS02004792HS02004799    1.00   0.00  0.00  0.00  1.00  0.00  0.00  0.00  0.98  0.00
  HS02004788HS02004792    1.00   0.00  0.00  0.00  1.00  0.00  0.00  0.00  0.98  0.00
  HS02004785HS02004788    1.00   0.00  0.00  0.00  1.00  0.00  0.00  0.00  0.00  0.00
  HS02004777HS02004785    1.00   0.00  0.00  0.00  1.00  0.00  0.00  0.00  0.12  0.00
  HS02004480HS02004478    1.00   0.03  0.00  0.00  0.51  0.00  0.00  0.47  0.00  0.00
  HS02004479HS02004480    1.00   0.01  0.00  0.00  0.99  0.00  0.00  0.00  0.11  0.00
  HS02004862HS02004870    1.00   0.00  0.00  0.00  1.00  0.00  0.00  0.00  0.03  0.00
  HS02004848HS02004852    1.00   0.02  0.00  0.00  0.98  0.00  0.00  0.00  0.78  0.00
  HS02004856HS02004862    1.00   0.00  0.05  0.00  0.95  0.00  0.00  0.00  0.83  0.00
  HS02004852HS02004856    1.00   0.02  0.00  0.00  0.97  0.00  0.00  0.00  0.86  0.00
  HS02004802HS02004478    1.00   0.03  0.00  0.00  0.97  0.00  0.00  0.00  0.02  0.00
  HS02004478WS02006287    1.00   0.04  0.00  0.00  0.66  0.31  0.00  0.00  0.69  0.00
  HS02004817HS02004807    1.00   0.00  0.02  0.00  0.98  0.00  0.00  0.00  0.01  0.00
  HS02004807HS02004802    1.00   0.02  0.00  0.00  0.97  0.00  0.00  0.00  0.00  0.00
  YS02001759YS02001757    1.00   0.00  0.00  0.00  1.00  0.00  0.00  0.00  0.16  0.00
  YS02001762YS02001759    1.00   0.00  0.00  0.00  1.00  0.00  0.00  0.00  0.03  0.00
  YS02001765YS02001762    1.00   0.00  0.00  0.00  1.00  0.00  0.00  0.00  0.13  0.00
  YS02001770YS02001767    1.00   0.00  0.00  0.00  1.00  0.00  0.00  0.00  0.00  0.00
  YS02001774YS02001770    1.00   0.00  0.03  0.00  0.97  0.00  0.00  0.00  0.03  0.00
  YS02001779YS02001774    1.00   0.00  0.00  0.00  1.00  0.00  0.00  0.00  0.17  0.00
  YS02001649YS02001757    1.00   0.00  0.00  0.00  1.00  0.00  0.00  0.00  0.16  0.00
  YS02001767YS02001765    1.00   0.00  0.00  0.00  1.00  0.00  0.00  0.00  0.00  0.00
  YS02006561YS02001783    1.00   0.05  0.00  0.00  0.57  0.37  0.00  0.00  0.58  0.00
  YS02001783YS02001784    1.00   0.00  0.05  0.00  0.95  0.00  0.00  0.00  0.00  0.00
  YS02001784YS02001785    1.00   0.00  0.00  0.00  1.00  0.00  0.00  0.00  0.16  0.00
  YS02001788YS02001790    1.00   0.00  0.00  0.00  0.57  0.43  0.00  0.00  0.52  0.00
  YS02001790YS02001791    1.00   0.00  0.00  0.00  0.53  0.47  0.00  0.00  0.39  0.00
  YS02001791YS02001793    1.00   0.00  0.00  0.00  0.56  0.44  0.00  0.00  0.02  0.00
  YS02001910YS02001907    1.00   0.00  0.00  0.00  0.99  0.00  0.00  0.00  0.12  0.00
  YS02001786YS02001788    1.00   0.00  0.00  0.00  0.55  0.45  0.00  0.00  0.00  0.00
  YS02001915YS02001910    1.00   0.00  0.00  0.00  0.99  0.01  0.00  0.00  0.14  0.00
  YS02001918YS02001915    1.00   0.00  0.00  0.00  1.00  0.00  0.00  0.00  0.57  0.00
  YS02001923YS02001920    1.00   0.00  0.00  0.00  1.00  0.00  0.00  0.00  0.83  0.00
  YS02001926YS02001923    1.00   0.00  0.01  0.00  0.17  0.00  0.82  0.00  0.00  0.00
  YS02001929YS02001926    1.00   0.00  0.02  0.00  0.98  0.00  0.00  0.00  0.82  0.00
  YS02001920YS02001918    1.00   0.00  0.00  0.00  1.00  0.00  0.00  0.00  0.00  0.00
  YS02001629YS02163301    1.00   0.03  0.01  0.00  0.96  0.00  0.00  0.00  0.00  0.00
  YS02001619YS02001622    1.00   0.02  0.00  0.00  0.98  0.00  0.00  0.00  0.00  0.00
  YS02001622YS02001625    1.00   0.02  0.00  0.00  0.98  0.00  0.00  0.00  0.04  0.00
  YS02001625YS02001629    1.00   0.02  0.03  0.00  0.93  0.00  0.01  0.00  0.00  0.00
  YS02163301YS02001633    1.00   0.00  0.03  0.00  0.97  0.00  0.00  0.00  0.00  0.00
  YS02163601YS02164001    1.00   0.00  0.02  0.00  0.98  0.00  0.00  0.00  0.00  0.00
  YS02164001YS02001641    1.00   0.00  0.01  0.00  0.98  0.00  0.00  0.00  0.06  0.00
  YS02001641YS02001644    1.00   0.00  0.00  0.00  1.00  0.00  0.00  0.00  0.00  0.00
  YS02001647YS02001649    1.00   0.00  0.05  0.00  0.95  0.00  0.00  0.00  0.01  0.00
  YS02006553YS02006556    1.00   0.00  0.00  0.00  1.00  0.00  0.00  0.00  0.03  0.00
  YS02006556YS02006558    1.00   0.00  0.00  0.00  1.00  0.00  0.00  0.00  0.00  0.00
  YSB6556YSB1171          1.00   0.01  0.02  0.00  0.98  0.00  0.00  0.00  0.00  0.00
  YS02001907YS02006553    1.00   0.00  0.00  0.00  1.00  0.00  0.00  0.00  0.00  0.00
  YS02006558YS02006561    1.00   0.05  0.00  0.00  0.21  0.74  0.00  0.00  0.50  0.00
  YS02001633YS02163601    1.00   0.00  0.00  0.00  1.00  0.00  0.00  0.00  0.15  0.00
  YS02001644YS02001647    1.00   0.00  0.05  0.00  0.95  0.00  0.00  0.00  0.00  0.00
  YS02001745YS02001748    1.00   0.00  0.00  0.00  0.90  0.01  0.00  0.09  0.03  0.00
  YS02001748YS02001751    1.00   0.00  0.00  0.00  0.96  0.04  0.00  0.00  0.14  0.00
  YS02001751YS02001754    1.00   0.00  0.00  0.00  0.94  0.00  0.00  0.06  0.01  0.00
  YS02001754YS02001757    1.00   0.00  0.00  0.00  1.00  0.00  0.00  0.00  0.17  0.00
  YS02001882YS02001884    1.00   0.03  0.00  0.00  0.97  0.00  0.00  0.00  0.00  0.00
  YS02001884YS02001887    1.00   0.01  0.01  0.00  0.98  0.00  0.00  0.00  0.00  0.00
  YS02001890YS02001895    1.00   0.00  0.03  0.00  0.97  0.00  0.00  0.00  0.00  0.00
  YS02001895YS02001898    1.00   0.04  0.00  0.00  0.95  0.00  0.02  0.00  0.00  0.00
  YS02001898YS02001901    1.00   0.04  0.00  0.00  0.96  0.00  0.00  0.00  0.01  0.00
  YS02001901YS02001904    1.00   0.04  0.00  0.00  0.96  0.00  0.00  0.00  0.00  0.00
  YS02001904YS02001907    1.00   0.00  0.04  0.00  0.96  0.00  0.00  0.00  0.00  0.00
  YS02001887YS02001890    1.00   0.00  0.00  0.00  0.99  0.00  0.01  0.00  0.00  0.00
  YS02001652YS02001649    1.00   0.00  0.00  0.00  0.99  0.01  0.00  0.00  0.15  0.00
  YS02001655YS02001652    1.00   0.00  0.00  0.00  0.94  0.00  0.00  0.05  0.01  0.00
  YS02001658YS02001655    1.00   0.00  0.03  0.00  0.93  0.04  0.00  0.00  0.02  0.00
  YS02001661YS02001658    1.00   0.03  0.00  0.00  0.90  0.07  0.00  0.00  0.03  0.00
  YS02001664YS02001661    1.00   0.02  0.00  0.00  0.87  0.11  0.00  0.00  0.17  0.00
  YSB1154YSB6556          1.00   0.02  0.00  0.00  0.98  0.00  0.00  0.00  0.01  0.00
  YSB1174YSB1171          1.00   0.01  0.01  0.00  0.98  0.00  0.00  0.00  0.00  0.00
  YSB1171HS02004479       1.00   0.01  0.00  0.00  0.99  0.00  0.00  0.00  0.10  0.00
  HS02004881HS02006253    1.00   0.01  0.00  0.00  0.42  0.00  0.00  0.56  0.24  0.00
  YS02001793JiankangQianchi    1.00   0.00  0.00  0.00  0.78  0.22  0.00  0.00  0.29  0.00
  YS02001757CaochengTiaoxuchi    1.00   0.00  0.06  0.00  0.85  0.08  0.00  0.00  0.00  0.00
  WSF200WS02003060        1.00   0.00  0.08  0.00  0.50  0.42  0.00  0.00  0.53  0.00
  1                       1.00   0.00  0.00  0.00  0.00  1.00  0.00  0.00  0.55  0.00
  2                       1.00   0.59  0.00  0.00  0.00  0.41  0.00  0.00  0.01  0.00
  3                       1.00   0.10  0.00  0.00  0.00  0.90  0.00  0.00  0.00  0.00
  4                       1.00   1.00  0.00  0.00  0.00  0.00  0.00  0.00  0.00  0.00
  
  
  *************************
  Conduit Surcharge Summary
  *************************
  
  ----------------------------------------------------------------------------
                                                           Hours        Hours 
                         --------- Hours Full --------   Above Full   Capacity
  Conduit                Both Ends  Upstream  Dnstream   Normal Flow   Limited
  ----------------------------------------------------------------------------
  WS02006229WS02006228        1.94      1.95      1.94      2.06         1.94
  WS02006256WS02006235        6.41      6.41      6.65      4.26         0.01
  WS02006253WS02006251        0.29      0.29      0.74      0.01         0.01
  WS02006252WS02006251        1.77      1.77      1.82      1.81         0.01
  WS02006251WS02006249        0.01      0.41      0.01      1.78         0.01
  WS02006249WS02006248        0.01      0.01      0.01      1.87         0.01
  WS02006248WS02006247        0.01      0.01      0.56      0.01         0.01
  WS02006247WS02006245        0.47      0.72      0.47      1.91         0.47
  WS02006245WS02006243        0.63      0.64      1.05      0.03         0.01
  WS02006243WS02006242        1.41      1.41      1.77      0.01         0.01
  WS02006242WS02006240        1.73      1.73      1.80      1.30         0.01
  WS02006240WS02006239        1.74      1.74      1.76      0.01         0.01
  WS02006239WS02006238        1.81      1.81      1.82      0.01         0.01
  WS02006238WS02006235        1.81      1.81      1.84      0.01         0.01
  WS02006235WS02006234        1.72      1.72      1.80      6.10         0.01
  WS02006234WS02006232        1.77      1.77      1.85      0.01         0.01
  WS02006232WS02006231        0.95      0.95      1.85      0.01         0.01
  WS02006231WS02006230        0.67      0.67      1.02      6.44         0.01
  WS02006230WS02006229        2.01      2.03      2.01      6.51         2.01
  WS02006228WS02006109        1.95      1.98      1.95      2.22         1.95
  WS02006112WS02006115        0.01      0.01      1.57      0.01         0.01
  WS02006111WS02006112        0.01      0.01      2.09      0.01         0.01
  WS02006110WS02006113        0.01      0.01      1.96      0.01         0.01
  WS02006109WS02006110        1.20      1.20      1.98      1.21         0.01
  WS02004401WS02004402        0.01      0.01      0.10      0.01         0.01
  WS02004406WS02004407        0.01      0.01      0.48      0.01         0.01
  WS02004405WS02004406        0.48      0.58      0.48      1.47         0.47
  WS02004404WS02004405        0.58      0.66      0.58      6.35         0.58
  WS02004403WS02004404        0.15      0.15      0.66      0.01         0.01
  WS02004402WS02004403        0.10      0.10      0.15      0.01         0.01
  WS02003072WS02003073        0.01      0.01      0.01      4.85         0.01
  HS02004480HS02004478        0.01      0.01      0.01      0.41         0.01
  YS02001759YS02001757        6.15      6.15      6.19      0.01         0.01
  YS02001762YS02001759        6.14      6.14      6.15      0.01         0.01
  YS02001765YS02001762        6.13      6.13      6.14      0.01         0.01
  YS02001770YS02001767        6.12      6.13      6.12      0.59         0.91
  YS02001774YS02001770        6.11      6.11      6.14      0.01         0.01
  YS02001779YS02001774        5.97      5.97      6.14      0.01         0.01
  YS02001649YS02001757        6.14      6.14      6.19      0.01         0.01
  YS02001767YS02001765        6.12      6.12      6.13      0.01         0.01
  YS02006561YS02001783        0.36      0.36      1.22      0.01         0.01
  YS02001783YS02001784        1.11      1.22      1.18      1.38         0.91
  YS02001784YS02001785        1.10      1.18      1.10      2.21         1.10
  YS02001788YS02001790        1.10      1.10      2.48      0.01         0.01
  YS02001790YS02001791        2.48      2.48      2.61      0.01         0.01
  YS02001791YS02001793        2.61      2.61      2.89      0.01         0.01
  YS02001910YS02001907        1.11      1.11      1.68      0.01         0.01
  YS02001786YS02001788        1.10      1.10      1.10      1.87         1.09
  YS02001915YS02001910        0.66      0.66      1.11      0.01         0.01
  YS02001918YS02001915        0.01      0.01      0.66      0.01         0.01
  YS02001629YS02163301        6.10      6.10      6.11      0.01         0.01
  YS02001619YS02001622        5.74      5.74      5.80      0.01         0.01
  YS02001622YS02001625        5.80      5.80      6.09      0.01         0.01
  YS02001625YS02001629        5.74      5.74      6.09      0.01         0.01
  YS02163301YS02001633        6.11      6.11      6.12      0.01         0.01
  YS02163601YS02164001        6.12      6.12      6.15      0.01         0.01
  YS02164001YS02001641        6.12      6.12      6.13      0.01         0.03
  YS02001641YS02001644        6.13      6.13      6.13      1.41         1.44
  YS02001647YS02001649        6.05      6.05      6.14      0.01         0.01
  YS02006553YS02006556        1.42      1.42      1.75      0.01         0.01
  YS02006556YS02006558        1.57      1.57      1.82      0.01         0.01
  YS02001907YS02006553        2.23      2.23      2.41      0.01         0.01
  YS02006558YS02006561        0.81      1.37      0.81      2.10         0.81
  YS02001633YS02163601        6.12      6.12      6.15      0.01         0.01
  YS02001644YS02001647        6.05      6.05      6.13      0.01         0.01
  YS02001745YS02001748        0.01      0.01      5.48      0.01         0.01
  YS02001748YS02001751        5.57      5.57      5.70      0.01         0.01
  YS02001751YS02001754        5.70      5.70      5.99      0.01         0.01
  YS02001754YS02001757        6.03      6.03      6.19      0.01         0.01
  YS02001882YS02001884        0.68      0.68      0.74      0.01         0.01
  YS02001884YS02001887        0.81      0.81      0.94      0.01         0.01
  YS02001890YS02001895        0.63      0.63      1.16      0.01         0.01
  YS02001895YS02001898        0.60      0.60      0.63      0.01         0.01
  YS02001898YS02001901        0.65      0.65      0.81      0.01         0.01
  YS02001901YS02001904        0.78      0.78      0.81      0.01         0.01
  YS02001904YS02001907        0.78      0.78      1.77      0.01         0.01
  YS02001887YS02001890        1.03      1.03      1.09      0.01         0.01
  YS02001652YS02001649        6.06      6.06      6.14      0.01         0.01
  YS02001655YS02001652        5.76      5.76      6.03      0.01         0.01
  YS02001658YS02001655        5.54      5.54      5.76      0.01         0.01
  YS02001661YS02001658        0.20      0.20      5.54      0.01         0.01
  YS02001664YS02001661        0.01      0.01      1.13      0.01         0.01
  YS02001793JiankangQianchi        2.82      2.82      5.09      0.01         0.01
  YS02001757CaochengTiaoxuchi        5.32      5.32      6.19      0.01         0.01
  
  
  ***************
  Pumping Summary
  ***************
  
  ---------------------------------------------------------------------------------------------------------
                                                  Min       Avg       Max     Total     Power    % Time Off
                        Percent   Number of      Flow      Flow      Flow    Volume     Usage    Pump Curve
  Pump                 Utilized   Start-Ups       LPS       LPS       LPS  10^6 ltr     Kw-hr    Low   High
  ---------------------------------------------------------------------------------------------------------
  CC-Pump-1               25.07           1      0.00    189.51    200.00     1.330      3.62    0.0   24.7
  CC-Pump-2               25.07           1      0.00    189.51    200.00     1.330      3.62    0.0   24.7
  JK-Pump-1               29.78           1      0.00    275.06    300.00     2.127     20.14    0.0    0.0
  JK-Pump-2               85.10           1      0.00    273.19    300.00     5.609     53.35    0.0    0.0
  XR-Pump-1               57.45           1      0.00     91.78     95.00     1.510      7.93    0.0    0.0
  XR-Pump-2               80.85           2      0.00     89.72     95.00     2.109     14.05    0.0    0.0
  XR-Pump-3                0.00           0      0.00      0.00      0.00     0.000      0.00    0.0    0.0
  XR-Pump-4               74.47           2      0.00     89.75     95.00     1.938     12.81    0.0    0.0
  

  Analysis begun on:  Wed Jan  5 14:55:27 2022
  Analysis ended on:  Wed Jan  5 14:55:30 2022
  Total elapsed time: 00:00:03