
  EPA STORM WATER MANAGEMENT MODEL - VERSION 5.1 (Build 5.3.0.dev0)
  --------------------------------------------------------------

  WARNING 04: minimum elevation drop used for Conduit WS02004404WS02004405
  WARNING 03: negative offset ignored for Link YS02001904YS02001907
  
  *********************************************************
  NOTE: The summary statistics displayed in this report are
  based on results found at every computational time step,  
  not just on results from each reporting time step.
  *********************************************************
  
  ****************
  Analysis Options
  ****************
  Flow Units ............... LPS
  Process Models:
    Rainfall/Runoff ........ YES
    RDII ................... NO
    Snowmelt ............... NO
    Groundwater ............ NO
    Flow Routing ........... YES
    Ponding Allowed ........ NO
    Water Quality .......... NO
  Infiltration Method ...... HORTON
  Flow Routing Method ...... DYNWAVE
  Surcharge Method ......... EXTRAN
  Starting Date ............ 08/28/2015 08:00:00
  Ending Date .............. 08/28/2015 15:50:00
  Antecedent Dry Days ...... 8.0
  Report Time Step ......... 00:01:00
  Wet Time Step ............ 00:01:00
  Dry Time Step ............ 00:01:00
  Routing Time Step ........ 5.00 sec
  Variable Time Step ....... YES
  Maximum Trials ........... 8
  Number of Threads ........ 4
  Head Tolerance ........... 0.001500 m
  
  
  **************************        Volume         Depth
  Runoff Quantity Continuity     hectare-m            mm
  **************************     ---------       -------
  Total Precipitation ......         5.556        12.164
  Evaporation Loss .........         0.000         0.000
  Infiltration Loss ........         1.427         3.124
  Surface Runoff ...........         3.072         6.726
  Final Storage ............         1.058         2.316
  Continuity Error (%) .....        -0.016
  
  
  **************************        Volume        Volume
  Flow Routing Continuity        hectare-m      10^6 ltr
  **************************     ---------     ---------
  Dry Weather Inflow .......         0.616         6.165
  Wet Weather Inflow .......         3.071        30.708
  Groundwater Inflow .......         0.000         0.000
  RDII Inflow ..............         0.000         0.000
  External Inflow ..........         0.102         1.024
  External Outflow .........         2.030        20.302
  Flooding Loss ............         1.265        12.648
  Evaporation Loss .........         0.000         0.000
  Exfiltration Loss ........         0.000         0.000
  Initial Stored Volume ....         0.076         0.761
  Final Stored Volume ......         0.653         6.530
  Continuity Error (%) .....        -2.129
  
  
  *************************
  Highest Continuity Errors
  *************************
  Node HS02004842 (16.24%)
  Node YS02001884 (11.92%)
  Node JK-storage (-9.35%)
  Node YSB1171 (3.12%)
  Node HS02004817 (2.99%)
  
  
  ***************************
  Time-Step Critical Elements
  ***************************
  Link 3 (58.47%)
  Link WS02006252WS02006251 (35.81%)
  Link WS02006280WS02006229 (1.22%)
  
  
  ********************************
  Highest Flow Instability Indexes
  ********************************
  Link YS02163601YS02164001 (38)
  Link YS02163301YS02001633 (38)
  Link YS02001629YS02163301 (37)
  Link YS02001619YS02001622 (36)
  Link WS02006113WS02006111 (35)
  
  
  *************************
  Routing Time Step Summary
  *************************
  Minimum Time Step           :     0.23 sec
  Average Time Step           :     0.77 sec
  Maximum Time Step           :     5.00 sec
  Percent in Steady State     :    -0.00
  Average Iterations per Step :     4.35
  Percent Not Converging      :    17.85
  
  
  ***************************
  Subcatchment Runoff Summary
  ***************************
  
  ------------------------------------------------------------------------------------------------------------------------------
                            Total      Total      Total      Total     Imperv       Perv      Total       Total     Peak  Runoff
                           Precip      Runon       Evap      Infil     Runoff     Runoff     Runoff      Runoff   Runoff   Coeff
  Subcatchment                 mm         mm         mm         mm         mm         mm         mm    10^6 ltr      LPS
  ------------------------------------------------------------------------------------------------------------------------------
  sub0                      12.16       0.00       0.00       0.85      10.05       0.00      10.05        0.01     1.91   0.826
  sub1                      12.16       0.00       0.00       1.34       9.56       0.00       9.56        0.06    14.15   0.786
  sub2                      12.16       0.00       0.00       4.50       6.75       0.00       6.75        0.06    13.75   0.555
  sub3                      12.16       0.00       0.00       4.50       6.71       0.00       6.71        0.15    32.07   0.552
  sub4                      12.16       0.00       0.00       1.34       9.40       0.00       9.40        0.20    40.20   0.773
  sub5                      12.16       0.00       0.00       0.85       9.99       0.00       9.99        0.11    25.19   0.822
  sub7                      12.16       0.00       0.00       1.09       9.81       0.00       9.81        0.03     7.55   0.807
  sub8                      12.16       0.00       0.00       1.09       9.80       0.00       9.80        0.06    14.17   0.806
  sub9                      12.16       0.00       0.00       1.09       9.80       0.00       9.80        0.05    10.64   0.806
  sub10                     12.16       0.00       0.00       0.97       9.89       0.00       9.89        0.11    24.40   0.813
  sub11                     12.16       0.00       0.00       0.97       9.91       0.00       9.91        0.12    26.15   0.815
  sub12                     12.16       0.00       0.00       1.58       9.39       0.00       9.39        0.08    19.06   0.772
  sub14                     12.16       0.00       0.00       1.09       9.80       0.00       9.80        0.09    21.02   0.805
  sub15                     12.16       0.00       0.00       3.65       7.53       0.00       7.53        0.13    29.11   0.619
  sub16                     12.16       0.00       0.00       4.01       7.23       0.00       7.23        0.08    17.47   0.594
  sub17                     12.16       0.00       0.00       3.89       7.34       0.00       7.34        0.06    14.47   0.603
  sub22                     12.16       0.00       0.00       5.23       6.14       0.00       6.14        0.39    88.27   0.505
  sub23                     12.16       0.00       0.00       4.50       6.79       0.00       6.79        0.32    73.89   0.558
  sub60                     12.16       0.00       0.00       1.46       7.71       0.00       7.71        2.34   297.17   0.634
  sub61                     12.16       0.00       0.00       2.07       7.87       0.00       7.87        2.43   359.80   0.647
  sub62                     12.16       0.00       0.00       0.97       8.55       0.00       8.55        2.63   372.87   0.703
  sub63                     12.16       0.00       0.00       3.53       6.89       0.00       6.89        2.09   327.80   0.567
  sub64                     12.16       0.00       0.00       1.82       7.40       0.00       7.40        2.25   282.66   0.608
  sub65                     12.16       0.00       0.00       1.58       7.52       0.00       7.52        2.31   287.20   0.618
  sub66                     12.16       0.00       0.00       3.53       6.36       0.00       6.36        1.95   257.27   0.523
  sub67                     12.16       0.00       0.00       0.97       9.05       0.00       9.05        2.79   452.90   0.744
  sub68                     12.16       0.00       0.00       1.70       8.28       0.00       8.28        2.55   391.99   0.681
  sub69                     12.16       0.00       0.00       1.82       8.61       0.00       8.61        2.01   355.79   0.708
  sub70                     12.16       8.79       0.00       7.03      11.43       0.10      11.53        2.64   335.00   0.550
  sub71                     12.16       0.00       0.00       0.97       8.31       0.00       8.31        1.96   263.63   0.683
  sub72                     12.16       0.00       0.00       0.85       6.56       0.00       6.56        1.34   129.40   0.540
  sub73                     12.16      11.23       0.00       7.88      12.47       0.08      12.54        2.95   300.52   0.536
  sub74                     12.16       0.00       0.00       9.12       2.57       0.00       2.57        1.03   189.59   0.211
  
  
  ******************
  Node Depth Summary
  ******************
  
  ---------------------------------------------------------------------------------
                                 Average  Maximum  Maximum  Time of Max    Reported
                                   Depth    Depth      HGL   Occurrence   Max Depth
  Node                 Type       Meters   Meters   Meters  days hr:min      Meters
  ---------------------------------------------------------------------------------
  WS02001211           JUNCTION     0.64     0.73     5.57     0  02:50        0.73
  WS02001212           JUNCTION     0.37     0.46     5.53     0  02:50        0.46
  WS02001213           JUNCTION     0.61     0.73     5.49     0  02:51        0.73
  WS02003069           JUNCTION     0.44     0.58     5.17     0  02:53        0.58
  WS02003072           JUNCTION     0.51     0.64     5.01     0  02:53        0.64
  WS02003073           JUNCTION     0.30     0.39     4.46     0  02:54        0.39
  WS02003060           JUNCTION     0.39     0.51     5.45     0  02:52        0.51
  WS02003066           JUNCTION     0.25     0.33     5.88     0  03:06        0.33
  WS02003059           JUNCTION     0.67     0.79     5.47     0  02:51        0.79
  WS02003067           JUNCTION     0.60     0.75     6.07     0  03:05        0.75
  WS02004401           JUNCTION     0.71     0.98     6.98     0  03:04        0.98
  WS02004402           JUNCTION     0.74     1.00     6.96     0  03:04        1.00
  WS02004403           JUNCTION     0.76     1.00     6.93     0  03:04        1.00
  WS02004404           JUNCTION     0.83     1.06     6.91     0  03:04        1.06
  WS02004406           JUNCTION     0.84     1.03     6.86     0  03:04        1.03
  WS02004409           JUNCTION     0.53     0.76     6.53     0  03:04        0.76
  WS02004410           JUNCTION     0.55     0.76     6.48     0  03:05        0.76
  WS02004411           JUNCTION     0.56     0.77     6.45     0  03:05        0.77
  WS02004412           JUNCTION     0.57     0.76     6.40     0  03:05        0.76
  WS02004413           JUNCTION     0.73     0.92     6.39     0  03:05        0.92
  WS02004405           JUNCTION     0.83     1.05     6.90     0  03:04        1.05
  WS02006109           JUNCTION     0.80     1.12     7.74     0  03:02        1.09
  WS02006110           JUNCTION     0.78     1.03     7.62     0  03:02        1.02
  WS02006111           JUNCTION     0.23     0.36     7.07     0  03:03        0.36
  WS02006112           JUNCTION     0.88     1.20     7.08     0  02:35        1.19
  WS02006113           JUNCTION     0.36     0.51     7.41     0  03:02        0.51
  WS02006115           JUNCTION     0.60     0.89     7.03     0  03:03        0.89
  WS02006116           JUNCTION     0.69     0.97     7.01     0  03:03        0.97
  WS02006230           JUNCTION     0.78     1.18     7.92     0  03:02        1.17
  WS02006231           JUNCTION     0.52     0.83     7.95     0  03:02        0.83
  WS02006232           JUNCTION     0.66     0.95     7.99     0  03:02        0.94
  WS02006234           JUNCTION     0.57     0.86     8.02     0  03:02        0.86
  WS02006235           JUNCTION     0.61     0.88     8.05     0  03:03        0.88
  WS02006238           JUNCTION     0.63     0.91     8.06     0  03:02        0.90
  WS02006240           JUNCTION     0.52     0.79     8.09     0  03:02        0.79
  WS02006242           JUNCTION     0.57     0.84     8.11     0  03:02        0.84
  WS02006243           JUNCTION     0.44     0.71     8.13     0  03:02        0.71
  WS02006245           JUNCTION     0.42     0.66     8.15     0  03:02        0.66
  WS02006247           JUNCTION     0.44     0.66     8.16     0  03:02        0.66
  WS02006248           JUNCTION     0.38     0.58     8.17     0  03:02        0.58
  WS02006249           JUNCTION     0.41     0.59     8.18     0  03:03        0.59
  WS02006239           JUNCTION     0.58     0.86     8.07     0  03:02        0.86
  WS02006251           JUNCTION     0.39     0.56     8.23     0  03:01        0.56
  WS02006252           JUNCTION     0.32     0.35     8.59     0  01:59        0.35
  WS02006253           JUNCTION     0.42     0.59     8.23     0  03:01        0.59
  WS02006256           JUNCTION     1.10     1.22     8.15     0  03:02        1.22
  WS02004138           JUNCTION     0.14     0.17     7.42     0  00:00        0.17
  WS02004407           JUNCTION     0.24     0.33     6.64     0  03:04        0.33
  WS02006228           JUNCTION     0.80     1.18     7.83     0  03:01        1.17
  WS02006229           JUNCTION     0.78     1.19     7.88     0  03:02        1.19
  WS02006280           JUNCTION     0.07     0.19     8.46     0  03:02        0.19
  WS02006284           JUNCTION     0.38     0.55     8.95     0  03:02        0.55
  WS02006287           JUNCTION     0.11     0.28     9.24     0  03:01        0.28
  WSF200               JUNCTION     0.24     0.35     5.58     0  03:06        0.35
  HS02004901           JUNCTION     0.13     0.28    10.10     0  03:01        0.28
  HS02004881           JUNCTION     0.01     0.04     9.07     0  03:01        0.04
  HS02004876           JUNCTION     0.05     0.12     9.15     0  03:01        0.12
  HS02004870           JUNCTION     0.02     0.06     9.35     0  03:01        0.06
  HS02004862           JUNCTION     0.02     0.07     9.46     0  03:01        0.07
  HS02004856           JUNCTION     0.08     0.13     9.55     0  03:01        0.13
  HS02004852           JUNCTION     0.01     0.05     9.56     0  03:01        0.05
  HS02004848           JUNCTION     0.01     0.05     9.65     0  03:01        0.05
  HS02004842           JUNCTION     0.33     0.38     9.65     0  03:01        0.38
  HS02004837           JUNCTION     0.03     0.07     9.65     0  03:01        0.07
  HS02004830           JUNCTION     0.04     0.08     9.55     0  03:01        0.08
  HS02004824           JUNCTION     0.03     0.06     9.46     0  03:01        0.06
  HS02004817           JUNCTION     0.45     0.60     9.44     0  03:01        0.60
  HS02004807           JUNCTION     0.13     0.27     9.44     0  03:01        0.27
  HS02004802           JUNCTION     0.17     0.30     9.43     0  03:01        0.30
  HS02004799           JUNCTION     0.13     0.33     9.54     0  03:01        0.33
  HS02004792           JUNCTION     0.04     0.14     9.66     0  03:01        0.14
  HS02004788           JUNCTION     0.03     0.10    10.00     0  03:01        0.10
  HS02004785           JUNCTION     0.05     0.17    10.07     0  03:01        0.17
  HS02004777           JUNCTION     0.16     0.30    10.10     0  03:01        0.30
  HS02004770           JUNCTION     0.13     0.27    10.10     0  03:01        0.27
  HS02004480           JUNCTION     0.09     0.26     9.50     0  03:01        0.26
  HS02004479           JUNCTION     0.13     0.30     9.50     0  03:01        0.30
  HS02004478           JUNCTION     0.07     0.18     9.41     0  03:01        0.18
  YS02001745           JUNCTION     0.70     0.88     8.39     0  03:24        0.87
  YS02001748           JUNCTION     1.09     2.10     9.17     0  02:43        1.31
  YS02001751           JUNCTION     1.27     1.81     8.69     0  02:45        1.52
  YS02001754           JUNCTION     1.52     1.90     8.51     0  02:43        1.80
  YS02001762           JUNCTION     1.72     2.03     8.43     0  03:30        2.02
  YS02001765           JUNCTION     1.67     1.98     8.43     0  03:07        1.97
  YS02001767           JUNCTION     1.64     1.93     8.42     0  03:15        1.92
  YS02001770           JUNCTION     1.63     1.91     8.41     0  02:45        1.90
  YS02001774           JUNCTION     1.70     1.98     8.40     0  02:45        1.96
  YS02001779           JUNCTION     1.45     1.68     8.37     0  02:43        1.68
  YS02001882           JUNCTION     0.55     1.63     8.35     0  02:53        1.59
  YS02001884           JUNCTION     0.64     1.72     8.34     0  02:53        1.70
  YS02001759           JUNCTION     1.76     2.07     8.43     0  02:58        2.06
  YS02001887           JUNCTION     0.72     1.80     8.34     0  02:53        1.78
  YS02001890           JUNCTION     0.75     1.81     8.32     0  02:53        1.80
  YS02001898           JUNCTION     0.52     1.56     8.30     0  02:53        1.55
  YS02001901           JUNCTION     0.64     1.68     8.29     0  02:53        1.66
  YS02001904           JUNCTION     0.61     1.64     8.27     0  02:53        1.63
  YS02001907           JUNCTION     0.94     1.96     8.25     0  02:53        1.96
  YS02001910           JUNCTION     0.73     1.78     8.29     0  02:54        1.77
  YS02001915           JUNCTION     0.53     1.59     8.31     0  02:54        1.57
  YS02001918           JUNCTION     0.28     1.28     8.34     0  02:54        1.25
  YS02001619           JUNCTION     1.24     1.61     8.54     0  02:34        1.47
  YS02001629           JUNCTION     1.59     1.85     8.40     0  02:44        1.84
  YS02001641           JUNCTION     1.69     1.93     8.37     0  03:18        1.93
  YS02001644           JUNCTION     1.69     1.92     8.35     0  02:44        1.92
  YS02001652           JUNCTION     1.54     2.16     8.76     0  02:55        1.93
  YS02001655           JUNCTION     1.30     2.20     9.05     0  02:56        1.76
  YS02001920           JUNCTION     0.38     1.35     8.36     0  02:54        1.32
  YS02001923           JUNCTION     0.21     1.11     8.37     0  02:54        1.07
  YS02001926           JUNCTION     0.27     0.93     8.38     0  02:54        0.91
  YS02001929           JUNCTION     0.15     0.70     8.39     0  02:54        0.66
  YS02001658           JUNCTION     1.03     2.30     9.44     0  02:56        1.60
  YS02001661           JUNCTION     0.80     2.46     9.86     0  02:55        1.90
  YS02001664           JUNCTION     0.36     0.57     8.49     0  02:53        0.56
  YS02001622           JUNCTION     1.26     1.62     8.52     0  02:34        1.49
  YS02001633           JUNCTION     1.68     1.95     8.40     0  02:44        1.94
  YS02001649           JUNCTION     1.73     2.05     8.44     0  02:55        2.05
  YS02001757           JUNCTION     1.85     2.17     8.43     0  03:32        2.16
  YS02001895           JUNCTION     0.51     1.57     8.31     0  02:53        1.55
  YS02001625           JUNCTION     1.54     1.78     8.38     0  02:40        1.78
  YS02163301           JUNCTION     1.62     1.89     8.40     0  02:44        1.87
  YS02163601           JUNCTION     1.73     2.00     8.40     0  02:44        1.98
  YS02164001           JUNCTION     1.67     1.93     8.39     0  02:44        1.91
  YS02001647           JUNCTION     1.52     1.80     8.41     0  03:07        1.79
  YSB1154              JUNCTION     0.27     0.45     9.51     0  03:01        0.45
  YSB6556              JUNCTION     0.16     0.34     9.51     0  03:01        0.34
  YSB1174              JUNCTION     0.22     0.40     9.51     0  03:01        0.40
  YSB1171              JUNCTION     0.42     0.60     9.51     0  03:01        0.60
  YS02006553           JUNCTION     0.94     1.96     8.25     0  03:00        1.96
  YS02006561           JUNCTION     0.32     1.10     7.76     0  02:53        1.07
  YS02006556           JUNCTION     0.91     1.92     8.23     0  02:53        1.91
  YS02006558           JUNCTION     0.95     1.96     8.23     0  03:00        1.95
  YS02001783           JUNCTION     0.54     1.56     7.70     0  02:44        1.47
  YS02001784           JUNCTION     0.56     1.89     7.96     0  02:44        1.40
  YS02001786           JUNCTION     0.50     1.99     8.02     0  02:44        1.25
  YS02001788           JUNCTION     0.43     2.28     8.26     0  02:44        1.13
  YS02001790           JUNCTION     0.53     1.96     7.60     0  02:43        1.29
  YS02001791           JUNCTION     0.49     1.71     7.18     0  02:44        1.27
  YS02001793           JUNCTION     0.65     2.06     6.89     0  02:44        1.80
  WS02004139           JUNCTION     0.58     0.67     5.58     0  02:50        0.67
  WSC                  OUTFALL      0.30     0.39     1.06     0  02:54        0.39
  3                    OUTFALL      0.12     0.21     6.21     0  03:02        0.21
  4                    OUTFALL      0.01     0.09     7.09     0  03:03        0.09
  5                    OUTFALL      0.00     0.00     5.00     0  00:00        0.00
  JK-storage           STORAGE      2.41     5.80     6.60     0  02:44        5.80
  CC-storage           STORAGE      1.08     1.37     8.37     0  03:26        1.37
  XR-storage           STORAGE      7.25     7.72     5.72     0  02:37        7.72
  
  
  *******************
  Node Inflow Summary
  *******************
  
  -------------------------------------------------------------------------------------------------
                                  Maximum  Maximum                  Lateral       Total        Flow
                                  Lateral    Total  Time of Max      Inflow      Inflow     Balance
                                   Inflow   Inflow   Occurrence      Volume      Volume       Error
  Node                 Type           LPS      LPS  days hr:min    10^6 ltr    10^6 ltr     Percent
  -------------------------------------------------------------------------------------------------
  WS02001211           JUNCTION      7.35   293.26     0  04:40       0.207        6.04       0.596
  WS02001212           JUNCTION      0.00   294.03     0  04:40           0        6.01       0.339
  WS02001213           JUNCTION      0.00   294.87     0  04:40           0        5.99       0.407
  WS02003069           JUNCTION      0.32   938.98     0  02:52     0.00902        14.7       0.211
  WS02003072           JUNCTION      0.00   938.98     0  02:53           0        14.7       0.258
  WS02003073           JUNCTION      1.82   940.81     0  02:54      0.0514        14.7       0.291
  WS02003060           JUNCTION     16.53   938.87     0  02:51       0.466        14.8       0.199
  WS02003066           JUNCTION      0.00   666.52     0  03:06           0        8.38       0.054
  WS02003059           JUNCTION      0.00   296.58     0  04:41           0        5.97       0.644
  WS02003067           JUNCTION      0.00   666.43     0  03:05           0        8.39       0.113
  WS02004401           JUNCTION      0.00   668.15     0  03:03           0        8.62       0.253
  WS02004402           JUNCTION      0.00   667.70     0  03:03           0         8.6       0.238
  WS02004403           JUNCTION      0.00   667.45     0  03:04           0        8.58       0.216
  WS02004404           JUNCTION      0.16   667.52     0  03:04     0.00457        8.57       0.163
  WS02004406           JUNCTION      0.00   667.61     0  03:04           0        8.53       0.396
  WS02004409           JUNCTION      0.00   667.52     0  03:04           0        8.49       0.197
  WS02004410           JUNCTION      0.00   667.15     0  03:04           0        8.48       0.222
  WS02004411           JUNCTION      0.00   666.90     0  03:05           0        8.46       0.227
  WS02004412           JUNCTION      0.00   666.67     0  03:05           0        8.44       0.245
  WS02004413           JUNCTION      0.00   666.52     0  03:05           0        8.42       0.362
  WS02004405           JUNCTION      0.04   667.58     0  03:04     0.00107        8.55       0.243
  WS02006109           JUNCTION      1.23   660.49     0  03:02      0.0347        8.69       0.252
  WS02006110           JUNCTION      0.00   660.46     0  03:02           0        8.66       0.233
  WS02006111           JUNCTION      0.00   695.29     0  03:02           0        8.63       0.052
  WS02006112           JUNCTION     14.47   672.17     0  03:03      0.0629        8.69       0.338
  WS02006113           JUNCTION      0.00   663.43     0  03:02           0        8.64       0.116
  WS02006115           JUNCTION      0.00   672.35     0  03:03           0        8.66       0.238
  WS02006116           JUNCTION      0.00   669.39     0  03:03           0        8.64       0.225
  WS02006230           JUNCTION     10.28   356.66     0  03:23        0.29         6.8       0.194
  WS02006231           JUNCTION      0.00   344.97     0  03:24           0        6.53       0.185
  WS02006232           JUNCTION      0.00   344.91     0  03:24           0        6.54       0.252
  WS02006234           JUNCTION      0.00   344.01     0  03:23           0        6.55       0.126
  WS02006235           JUNCTION      0.00   343.37     0  03:23           0         6.6       0.169
  WS02006238           JUNCTION      0.00   244.52     0  03:19           0        4.32       0.185
  WS02006240           JUNCTION      0.00   242.00     0  03:17           0        4.31       0.284
  WS02006242           JUNCTION      0.00   241.59     0  03:17           0        4.31       0.338
  WS02006243           JUNCTION      0.00   238.93     0  03:17           0        4.31       0.136
  WS02006245           JUNCTION      0.00   238.71     0  02:15           0        4.32       0.192
  WS02006247           JUNCTION      0.00   240.92     0  02:15           0        4.32       0.159
  WS02006248           JUNCTION      0.00   242.98     0  02:15           0        4.33       0.095
  WS02006249           JUNCTION      0.00   280.61     0  03:01           0        4.47       0.232
  WS02006239           JUNCTION      0.00   243.28     0  03:19           0        4.31       0.275
  WS02006251           JUNCTION      0.08   280.82     0  03:01     0.00217        4.48       0.195
  WS02006252           JUNCTION      0.00   200.00     0  01:59           0        4.12       0.010
  WS02006253           JUNCTION      1.91    81.00     0  03:01     0.00813       0.366       1.035
  WS02006256           JUNCTION      0.00   600.00     0  02:50           0         7.8       0.039
  WS02004138           JUNCTION      0.00   285.00     0  00:00           0        5.87       0.090
  WS02004407           JUNCTION      0.00   667.71     0  03:04           0         8.5       0.089
  WS02006228           JUNCTION      0.00   659.32     0  03:02           0        8.67       0.179
  WS02006229           JUNCTION      0.00   657.36     0  03:02           0        8.68       0.142
  WS02006280           JUNCTION      0.00   375.54     0  03:02           0        1.89       0.004
  WS02006284           JUNCTION      0.10   375.54     0  03:02      0.0027        1.89       0.064
  WS02006287           JUNCTION      0.00   375.26     0  03:01           0        1.89       0.037
  WSF200               JUNCTION      0.00   666.53     0  03:06           0        8.37       0.051
  HS02004901           JUNCTION     17.47    17.47     0  03:01      0.0757      0.0759       2.381
  HS02004881           JUNCTION      7.55    79.19     0  03:01      0.0331       0.357       0.086
  HS02004876           JUNCTION     14.15    72.10     0  03:01      0.0636       0.324       0.171
  HS02004870           JUNCTION     14.17    58.27     0  03:01      0.0626       0.261       0.043
  HS02004862           JUNCTION     13.95    44.46     0  03:01      0.0685       0.198       0.088
  HS02004856           JUNCTION     10.64    30.79     0  03:01      0.0471       0.131       1.116
  HS02004852           JUNCTION      0.00    20.44     0  03:01           0       0.084       0.069
  HS02004848           JUNCTION     32.07    32.07     0  03:01       0.151       0.151       0.033
  HS02004842           JUNCTION      0.00    11.42     0  03:01           0      0.0801      19.389
  HS02004837           JUNCTION     30.75    41.91     0  03:01       0.288       0.355       0.230
  HS02004830           JUNCTION      0.15    41.84     0  03:01     0.00423       0.346       0.359
  HS02004824           JUNCTION     40.25    81.79     0  03:01       0.197       0.542       0.100
  HS02004817           JUNCTION      0.60    82.18     0  03:01      0.0169       0.558       3.079
  HS02004807           JUNCTION     26.15   107.24     0  03:01       0.115       0.657       0.656
  HS02004802           JUNCTION      0.00   106.49     0  03:01           0       0.653       0.617
  HS02004799           JUNCTION     21.02   227.51     0  03:01      0.0932        1.06       0.236
  HS02004792           JUNCTION     88.55   207.32     0  03:01       0.396       0.966       0.043
  HS02004788           JUNCTION     30.78   119.37     0  03:01       0.177       0.571       0.069
  HS02004785           JUNCTION      0.15    89.79     0  03:01     0.00423       0.396       0.125
  HS02004777           JUNCTION      0.03    90.24     0  03:01    0.000846       0.397       1.326
  HS02004770           JUNCTION     73.89    90.93     0  03:01       0.324       0.398       0.787
  HS02004480           JUNCTION      0.00   269.27     0  03:01           0        1.25       0.098
  HS02004479           JUNCTION      0.00    42.82     0  03:02           0       0.204       0.360
  HS02004478           JUNCTION      0.00   375.17     0  03:01           0        1.89       0.018
  YS02001745           JUNCTION    297.18   297.18     0  03:01        2.34        2.34       0.480
  YS02001748           JUNCTION      0.04   478.85     0  02:43     0.00127        2.33       1.007
  YS02001751           JUNCTION      0.01   309.61     0  03:01     0.00031         2.3       1.039
  YS02001754           JUNCTION      0.26   309.58     0  03:01     0.00733        2.29       1.091
  YS02001762           JUNCTION      0.00   335.18     0  02:54           0        1.74       1.228
  YS02001765           JUNCTION      0.00   335.30     0  02:54           0        1.74       1.417
  YS02001767           JUNCTION      0.54   335.46     0  02:54      0.0151        1.76       2.068
  YS02001770           JUNCTION    373.02   373.02     0  03:01        2.63        2.68       1.207
  YS02001774           JUNCTION      0.00   290.27     0  03:28           0       0.947       2.720
  YS02001779           JUNCTION      0.01   290.57     0  03:28    0.000141       0.917       1.711
  YS02001882           JUNCTION      0.00    50.04     0  02:47           0      0.0151      16.895
  YS02001884           JUNCTION      0.00    62.50     0  02:45           0      0.0508      13.536
  YS02001759           JUNCTION    359.84   661.40     0  02:55        2.43        4.09       0.566
  YS02001887           JUNCTION    453.35   453.35     0  03:01         2.8        2.83       0.300
  YS02001890           JUNCTION      0.00   453.52     0  03:01           0        2.79       0.330
  YS02001898           JUNCTION      0.00   453.44     0  03:01           0        2.77       0.116
  YS02001901           JUNCTION      0.00   453.59     0  03:01           0        2.77       0.247
  YS02001904           JUNCTION      0.00   453.56     0  03:01           0        2.77       0.224
  YS02001907           JUNCTION      0.00   881.90     0  03:00           0        6.12       0.394
  YS02001910           JUNCTION      0.00   466.36     0  02:55           0        3.37       0.350
  YS02001915           JUNCTION    263.65   466.22     0  02:55        1.96         3.4       0.178
  YS02001918           JUNCTION      0.00   226.81     0  02:55           0        1.45       0.126
  YS02001619           JUNCTION    257.27   257.27     0  03:01        1.95        1.95       0.636
  YS02001629           JUNCTION      0.00   206.25     0  02:49           0        1.63       1.813
  YS02001641           JUNCTION      0.00   436.81     0  02:50           0        3.85       0.552
  YS02001644           JUNCTION    282.70  1000.15     0  03:25        2.25        8.08       0.323
  YS02001652           JUNCTION      0.00   375.23     0  03:02           0        2.03       1.147
  YS02001655           JUNCTION      0.15   375.02     0  03:02     0.00434        2.06       1.237
  YS02001920           JUNCTION      2.87   226.65     0  02:55      0.0809        1.43       0.204
  YS02001923           JUNCTION      0.04   254.77     0  02:55     0.00106        1.34       0.045
  YS02001926           JUNCTION      0.05   210.72     0  02:55     0.00147        1.34       0.251
  YS02001929           JUNCTION    129.40   129.40     0  03:01        1.34        1.34       0.040
  YS02001658           JUNCTION      0.00   386.70     0  03:01           0        2.08       1.156
  YS02001661           JUNCTION      0.00   692.28     0  02:53           0        2.81      -0.076
  YS02001664           JUNCTION    327.80   361.55     0  02:53        2.09        2.82       0.263
  YS02001622           JUNCTION      0.00   257.38     0  03:01           0        1.94       1.671
  YS02001633           JUNCTION    287.40   436.81     0  02:50        2.32         3.9       0.827
  YS02001649           JUNCTION      0.00   934.72     0  02:49           0        4.84       0.775
  YS02001757           JUNCTION      0.00  1774.23     0  02:51           0        9.04       1.033
  YS02001895           JUNCTION      0.00   453.48     0  03:01           0        2.78       0.176
  YS02001625           JUNCTION      0.00   257.35     0  03:01           0         1.9       2.051
  YS02163301           JUNCTION      0.00   206.30     0  02:49           0        1.61       1.509
  YS02163601           JUNCTION      0.11   436.74     0  02:50      0.0031        3.87       0.784
  YS02164001           JUNCTION      0.00   436.86     0  02:50           0        3.85       0.523
  YS02001647           JUNCTION      0.00   665.61     0  02:50           0        3.83       0.746
  YSB1154              JUNCTION     25.19    25.19     0  03:01       0.113       0.114       1.286
  YSB6556              JUNCTION      0.00    24.91     0  03:01           0       0.115       1.100
  YSB1174              JUNCTION     19.06    19.06     0  03:01      0.0821      0.0827       1.581
  YSB1171              JUNCTION      0.00    43.19     0  03:01           0       0.203       3.219
  YS02006553           JUNCTION      0.00   667.40     0  03:17           0         5.9       0.260
  YS02006561           JUNCTION      0.00   964.06     0  03:00           0        8.42       0.007
  YS02006556           JUNCTION      0.00   667.46     0  03:17           0        5.91       0.191
  YS02006558           JUNCTION    392.87   964.34     0  03:01        2.57        8.45       0.065
  YS02001783           JUNCTION      0.00   964.10     0  03:00           0        8.42       0.029
  YS02001784           JUNCTION      1.06   965.24     0  03:00      0.0299        8.45       0.045
  YS02001786           JUNCTION      0.06   965.18     0  03:00     0.00159        8.45       0.041
  YS02001788           JUNCTION      0.07   965.27     0  03:00       0.002        8.45       0.024
  YS02001790           JUNCTION      0.15   965.41     0  03:01     0.00437        8.45       0.029
  YS02001791           JUNCTION      0.00   965.38     0  03:01           0        8.45       0.014
  YS02001793           JUNCTION      0.00   965.50     0  03:00           0        8.44       0.004
  WS02004139           JUNCTION      0.32   290.40     0  00:00     0.00905        5.87       0.667
  WSC                  OUTFALL       0.00   940.76     0  02:54           0        14.7       0.000
  3                    OUTFALL       0.00   535.14     0  03:02           0        5.49       0.000
  4                    OUTFALL       0.00    73.26     0  03:03           0       0.138       0.000
  5                    OUTFALL       0.00     0.00     0  00:00           0           0       0.000 ltr
  JK-storage           STORAGE       0.00   965.48     0  03:00           0        8.59      -8.548
  CC-storage           STORAGE       0.00  1774.36     0  02:51           0         7.9       0.821
  XR-storage           STORAGE     690.11   690.11     0  03:01        9.61        10.2      -0.001
  
  
  **********************
  Node Surcharge Summary
  **********************
  
  Surcharging occurs when water rises above the top of the highest conduit.
  ---------------------------------------------------------------------
                                               Max. Height   Min. Depth
                                   Hours       Above Crown    Below Rim
  Node                 Type      Surcharged         Meters       Meters
  ---------------------------------------------------------------------
  WS02004404           JUNCTION        0.73          0.061        2.719
  WS02004406           JUNCTION        0.40          0.033        2.417
  WS02004405           JUNCTION        0.60          0.048        2.752
  WS02006109           JUNCTION        1.65          0.298        1.522
  WS02006110           JUNCTION        1.12          0.123        1.727
  WS02006112           JUNCTION        1.25          0.200        1.480
  WS02006230           JUNCTION        0.66          0.095        1.475
  WS02006231           JUNCTION        0.84          0.122        1.408
  WS02006232           JUNCTION        1.48          0.254        1.226
  WS02006234           JUNCTION        1.07          0.143        1.097
  WS02006235           JUNCTION        1.23          0.175        1.115
  WS02006238           JUNCTION        1.29          0.193        1.237
  WS02006240           JUNCTION        0.86          0.082        1.308
  WS02006242           JUNCTION        1.04          0.109        0.711
  WS02006243           JUNCTION        0.02          0.001        0.769
  WS02006239           JUNCTION        1.04          0.119        1.171
  WS02006228           JUNCTION        1.64          0.346        1.854
  YS02001748           JUNCTION        5.05          1.017        0.173
  YS02001751           JUNCTION        5.24          0.808        0.392
  YS02001754           JUNCTION        5.40          0.849        0.301
  YS02001762           JUNCTION        5.64          1.029        0.121
  YS02001765           JUNCTION        5.61          0.978        0.122
  YS02001767           JUNCTION        5.58          0.931        0.099
  YS02001770           JUNCTION        5.56          0.882        0.038
  YS02001774           JUNCTION        5.63          0.977        0.073
  YS02001779           JUNCTION        5.39          0.680        0.000
  YS02001882           JUNCTION        0.77          0.630        0.200
  YS02001884           JUNCTION        0.81          0.665        0.205
  YS02001759           JUNCTION        5.66          1.068        0.142
  YS02001887           JUNCTION        0.89          0.748        0.202
  YS02001890           JUNCTION        0.92          0.760        0.000
  YS02001898           JUNCTION        0.73          0.531        0.209
  YS02001901           JUNCTION        0.85          0.677        0.193
  YS02001904           JUNCTION        0.83          0.637        0.213
  YS02001907           JUNCTION        1.48          0.950        0.000
  YS02001910           JUNCTION        0.97          0.778        0.322
  YS02001915           JUNCTION        0.76          0.595        0.405
  YS02001918           JUNCTION        0.51          0.277        0.533
  YS02001619           JUNCTION        5.24          0.610        0.000
  YS02001629           JUNCTION        5.24          0.470        0.000
  YS02001641           JUNCTION        5.62          0.935        0.165
  YS02001644           JUNCTION        5.62          0.920        0.000
  YS02001652           JUNCTION        5.41          1.130        0.000
  YS02001655           JUNCTION        5.26          1.200        0.000
  YS02001920           JUNCTION        0.55          0.351        0.789
  YS02001658           JUNCTION        5.08          1.300        0.000
  YS02001661           JUNCTION        0.23          1.390        0.000
  YS02001622           JUNCTION        5.25          0.620        0.000
  YS02001633           JUNCTION        5.60          0.930        0.130
  YS02001649           JUNCTION        5.64          1.050        0.000
  YS02001757           JUNCTION        5.74          1.171        0.039
  YS02001895           JUNCTION        0.74          0.566        0.184
  YS02001625           JUNCTION        5.43          0.780        0.000
  YS02163301           JUNCTION        5.58          0.887        0.143
  YS02163601           JUNCTION        5.64          0.998        0.082
  YS02164001           JUNCTION        5.61          0.930        0.170
  YS02001647           JUNCTION        5.42          0.803        0.097
  YS02006553           JUNCTION        1.55          0.964        0.226
  YS02006561           JUNCTION        0.64          0.296        0.854
  YS02006556           JUNCTION        1.20          0.878        0.472
  YS02006558           JUNCTION        1.15          0.859        0.541
  YS02001783           JUNCTION        1.17          0.762        0.838
  YS02001784           JUNCTION        1.23          1.092        0.398
  YS02001786           JUNCTION        1.17          1.190        0.240
  YS02001788           JUNCTION        1.16          1.480        0.000
  YS02001790           JUNCTION        1.77          1.157        0.000
  YS02001791           JUNCTION        1.80          0.908        1.012
  YS02001793           JUNCTION        1.99          1.057        1.543
  
  
  *********************
  Node Flooding Summary
  *********************
  
  Flooding refers to all water that overflows a node, whether it ponds or not.
  --------------------------------------------------------------------------
                                                             Total   Maximum
                                 Maximum   Time of Max       Flood    Ponded
                        Hours       Rate    Occurrence      Volume     Depth
  Node                 Flooded       LPS   days hr:min    10^6 ltr    Meters
  --------------------------------------------------------------------------
  YS02001779              2.48    290.49      0  03:28       0.897     0.000
  YS02001890              0.01      2.82      0  02:53       0.000     0.000
  YS02001907              0.38    305.23      0  03:00       0.205     0.000
  YS02001619              0.01     24.70      0  02:34       0.000     0.000
  YS02001629              0.01      0.42      0  02:44       0.000     0.000
  YS02001644              4.77   1000.13      0  03:25       6.229     0.000
  YS02001652              0.01     24.27      0  02:56       0.000     0.000
  YS02001655              0.01     19.89      0  03:14       0.000     0.000
  YS02001658              0.01     12.51      0  02:58       0.000     0.000
  YS02001661              0.01    198.21      0  02:56       0.002     0.000
  YS02001622              0.01     21.26      0  02:34       0.000     0.000
  YS02001649              0.10     55.43      0  03:03       0.006     0.000
  YS02001625              0.82    168.37      0  03:01       0.234     0.000
  YS02001788              0.01     95.87      0  02:44       0.000     0.000
  YS02001790              0.01    101.23      0  02:43       0.000     0.000
  JK-storage              1.66    462.19      0  03:40       1.601     0.000
  XR-storage              4.68    490.64      0  03:01       3.473     0.000
  
  
  **********************
  Storage Volume Summary
  **********************
  
  --------------------------------------------------------------------------------------------------
                         Average     Avg  Evap Exfil       Maximum     Max    Time of Max    Maximum
                          Volume    Pcnt  Pcnt  Pcnt        Volume    Pcnt     Occurrence    Outflow
  Storage Unit           1000 m3    Full  Loss  Loss       1000 m3    Full    days hr:min        LPS
  --------------------------------------------------------------------------------------------------
  JK-storage               0.121      42     0     0         0.291     100       0  02:44     600.00
  CC-storage               3.002      19     0     0         3.831      24       0  03:26     200.00
  XR-storage               0.870      94     0     0         0.926     100       0  02:37     285.00
  
  
  ***********************
  Outfall Loading Summary
  ***********************
  
  -----------------------------------------------------------
                         Flow       Avg       Max       Total
                         Freq      Flow      Flow      Volume
  Outfall Node           Pcnt       LPS       LPS    10^6 ltr
  -----------------------------------------------------------
  WSC                   99.99    596.69    940.76      14.679
  3                     95.11    264.91    535.14       5.486
  4                     19.25     35.54     73.26       0.138
  5                      0.00      0.00      0.00       0.000
  -----------------------------------------------------------
  System                53.59    897.14   1533.07      20.302
  
  
  ********************
  Link Flow Summary
  ********************
  
  -----------------------------------------------------------------------------
                                 Maximum  Time of Max   Maximum    Max/    Max/
                                  |Flow|   Occurrence   |Veloc|    Full    Full
  Link                 Type          LPS  days hr:min     m/sec    Flow   Depth
  -----------------------------------------------------------------------------
  WS02003066WSF200     CONDUIT    666.53     0  03:06      2.86    0.11    0.26
  WS02006287WS02006284 CONDUIT    375.44     0  03:02      1.98    0.17    0.29
  WS02006284WS02006280 CONDUIT    375.54     0  03:02      2.22    0.16    0.27
  WS02006280WS02006229 CONDUIT    375.57     0  03:02      3.58    0.08    0.19
  WS02006229WS02006228 CONDUIT    659.32     0  03:02      1.31    2.18    1.00
  WS02006256WS02006235 CONDUIT    166.25     0  00:01      2.58    1.76    1.00
  WS02006253WS02006251 CONDUIT     80.75     0  03:01      0.46    0.24    0.81
  WS02006252WS02006251 CONDUIT    200.60     0  01:59      1.97    0.74    0.76
  WS02006251WS02006249 CONDUIT    280.61     0  03:01      0.97    0.81    0.82
  WS02006249WS02006248 CONDUIT    242.98     0  02:15      1.05    1.33    0.82
  WS02006248WS02006247 CONDUIT    240.92     0  02:15      1.02    0.52    0.88
  WS02006247WS02006245 CONDUIT    238.71     0  02:15      0.98    1.89    0.94
  WS02006245WS02006243 CONDUIT    238.93     0  03:17      1.03    0.71    0.97
  WS02006243WS02006242 CONDUIT    241.59     0  03:17      0.84    0.52    1.00
  WS02006242WS02006240 CONDUIT    242.00     0  03:17      0.77    0.96    1.00
  WS02006240WS02006239 CONDUIT    243.28     0  03:19      0.84    0.77    1.00
  WS02006239WS02006238 CONDUIT    244.52     0  03:19      0.77    0.78    1.00
  WS02006238WS02006235 CONDUIT    244.48     0  03:19      1.25    0.55    1.00
  WS02006235WS02006234 CONDUIT    344.01     0  03:23      0.95    3.63    1.00
  WS02006234WS02006232 CONDUIT    344.91     0  03:24      1.13    0.70    1.00
  WS02006232WS02006231 CONDUIT    344.97     0  03:24      0.95    0.72    1.00
  WS02006231WS02006230 CONDUIT    346.39     0  03:23      1.30    5.25    1.00
  WS02006230WS02006229 CONDUIT    358.89     0  03:23      0.93    7.99    1.00
  WS02006228WS02006109 CONDUIT    659.26     0  03:02      1.31    2.88    1.00
  WS02006116WS02004401 CONDUIT    668.15     0  03:03      0.86    0.92    0.97
  WS02006115WS02006116 CONDUIT    669.39     0  03:03      0.90    0.86    0.90
  WS02006113WS02006111 CONDUIT    695.29     0  03:02      2.60    0.83    0.54
  WS02006112WS02006115 CONDUIT    672.35     0  03:03      0.88    0.40    0.94
  WS02006111WS02006112 CONDUIT    661.45     0  03:03      1.72    0.31    0.72
  WS02006110WS02006113 CONDUIT    663.43     0  03:02      1.51    0.60    0.82
  WS02006109WS02006110 CONDUIT    660.46     0  03:02      1.31    1.27    1.00
  WS02004411WS02004412 CONDUIT    666.67     0  03:05      1.03    0.95    0.77
  WS02004401WS02004402 CONDUIT    667.70     0  03:03      0.85    0.80    0.99
  WS02004413WS02003067 CONDUIT    666.43     0  03:05      1.25    0.29    0.64
  WS02004412WS02004413 CONDUIT    666.52     0  03:05      0.95    0.45    0.84
  WS02004410WS02004411 CONDUIT    666.90     0  03:05      1.03    0.91    0.76
  WS02004409WS02004410 CONDUIT    667.15     0  03:04      1.04    0.86    0.76
  WS02004407WS02004409 CONDUIT    667.52     0  03:04      1.53    0.24    0.54
  WS02004406WS02004407 CONDUIT    667.71     0  03:04      1.20    0.30    0.67
  WS02004405WS02004406 CONDUIT    667.61     0  03:04      0.85    1.32    1.00
  WS02004404WS02004405 CONDUIT    667.54     0  03:04      0.85    6.54    1.00
  WS02004403WS02004404 CONDUIT    667.36     0  03:04      0.85    0.48    1.00
  WS02004402WS02004403 CONDUIT    667.45     0  03:04      0.85    0.96    1.00
  WS02004139WS02001211 CONDUIT    285.91     0  04:40      0.81    0.36    0.54
  WS02004138WS02004139 CONDUIT    290.07     0  00:00      3.33    0.06    0.39
  WS02003067WS02003066 CONDUIT    666.52     0  03:06      1.36    0.21    0.45
  WS02001213WS02003059 CONDUIT    296.58     0  04:41      0.80    0.49    0.75
  WS02001212WS02001213 CONDUIT    294.87     0  04:40      1.19    0.45    0.43
  WS02001211WS02001212 CONDUIT    294.03     0  04:40      0.67    0.22    0.60
  WS02003072WS02003073 CONDUIT    938.99     0  02:54      1.73    2.03    0.49
  WS02003069WS02003072 CONDUIT    938.98     0  02:53      1.62    0.45    0.51
  WS02003060WS02003069 CONDUIT    938.66     0  02:52      1.87    0.37    0.46
  WS02003059WS02003060 CONDUIT    299.10     0  04:41      0.81    0.20    0.65
  HS02004901HS02004770 CONDUIT     17.70     0  03:01      0.07    0.07    0.39
  HS02004876HS02004881 CONDUIT     71.90     0  03:01      0.92    0.76    0.11
  HS02004870HS02004876 CONDUIT     58.03     0  03:01      0.63    0.04    0.13
  HS02004842HS02004848 CONDUIT     11.42     0  03:01      0.05    0.01    0.30
  HS02004837HS02004842 CONDUIT     11.94     0  03:02      0.41    0.01    0.32
  HS02004830HS02004837 CONDUIT     41.69     0  03:01      0.56    0.04    0.11
  HS02004824HS02004830 CONDUIT     41.67     0  03:01      0.58    0.05    0.10
  HS02004817HS02004824 CONDUIT     81.58     0  03:01      0.25    0.04    0.47
  HS02004770HS02004777 CONDUIT     90.21     0  03:01      0.32    0.16    0.41
  HS02004799HS02004480 CONDUIT    226.97     0  03:01      0.78    0.29    0.42
  HS02004792HS02004799 CONDUIT    206.60     0  03:01      0.88    0.13    0.33
  HS02004788HS02004792 CONDUIT    118.94     0  03:01      1.01    0.08    0.17
  HS02004785HS02004788 CONDUIT     89.52     0  03:02      0.66    0.67    0.19
  HS02004777HS02004785 CONDUIT     89.64     0  03:01      0.38    0.11    0.33
  HS02004480HS02004478 CONDUIT    269.12     0  03:01      1.20    1.13    0.32
  HS02004479HS02004480 CONDUIT     44.17     0  03:02      0.23    0.04    0.40
  HS02004862HS02004870 CONDUIT     44.23     0  03:01      0.64    0.05    0.10
  HS02004848HS02004852 CONDUIT     20.44     0  03:01      0.44    0.02    0.07
  HS02004856HS02004862 CONDUIT     30.56     0  03:01      0.47    0.03    0.09
  HS02004852HS02004856 CONDUIT     20.26     0  03:01      0.24    0.02    0.12
  HS02004802HS02004478 CONDUIT    106.59     0  03:02      0.45    0.09    0.35
  HS02004478WS02006287 CONDUIT    375.26     0  03:01      1.68    0.11    0.25
  HS02004817HS02004807 CONDUIT     82.18     0  03:01      0.19    0.05    0.62
  HS02004807HS02004802 CONDUIT    106.49     0  03:01      0.38    0.20    0.40
  YS02001759YS02001757 CONDUIT    661.66     0  02:55      0.84    0.47    1.00
  YS02001762YS02001759 CONDUIT    335.51     0  02:54      0.43    0.39    1.00
  YS02001765YS02001762 CONDUIT    335.18     0  02:54      0.43    0.31    1.00
  YS02001770YS02001767 CONDUIT    334.92     0  02:54      0.43    1.33    1.00
  YS02001774YS02001770 CONDUIT    290.27     0  03:28      0.37    0.19    1.00
  YS02001779YS02001774 CONDUIT    290.57     0  03:28      0.37    0.15    1.00
  YS02001649YS02001757 CONDUIT    934.78     0  02:49      1.19    0.57    1.00
  YS02001767YS02001765 CONDUIT    335.30     0  02:54      0.43    0.42    1.00
  YS02006561YS02001783 CONDUIT    964.10     0  03:00      2.13    0.50    1.00
  YS02001783YS02001784 CONDUIT    964.18     0  03:00      1.92    1.33    1.00
  YS02001784YS02001785 CONDUIT    965.12     0  03:00      1.92    2.25    1.00
  YS02001788YS02001790 CONDUIT    965.26     0  03:01      2.33    0.71    1.00
  YS02001790YS02001791 CONDUIT    965.38     0  03:01      2.86    1.05    1.00
  YS02001791YS02001793 CONDUIT    965.50     0  03:00      5.77    0.41    1.00
  YS02001910YS02001907 CONDUIT    466.47     0  02:55      0.59    0.26    1.00
  YS02001786YS02001788 CONDUIT    965.20     0  03:00      2.23    1.86    1.00
  YS02001915YS02001910 CONDUIT    466.36     0  02:55      0.59    0.23    1.00
  YS02001918YS02001915 CONDUIT    228.27     0  02:55      0.44    0.13    1.00
  YS02001923YS02001920 CONDUIT    223.78     0  02:55      0.68    0.10    1.00
  YS02001926YS02001923 CONDUIT    254.73     0  02:55      0.79    0.36    0.91
  YS02001929YS02001926 CONDUIT    210.66     0  02:55      0.84    0.10    0.80
  YS02001920YS02001918 CONDUIT    226.81     0  02:55      0.67    0.22    1.00
  YS02001629YS02163301 CONDUIT    206.30     0  02:49      0.26    0.25    1.00
  YS02001619YS02001622 CONDUIT    257.38     0  03:01      0.61    0.38    1.00
  YS02001622YS02001625 CONDUIT    257.35     0  03:01      0.33    0.14    1.00
  YS02001625YS02001629 CONDUIT    206.25     0  02:49      0.26    0.10    1.00
  YS02163301YS02001633 CONDUIT    206.46     0  02:49      0.26    0.19    1.00
  YS02163601YS02164001 CONDUIT    436.86     0  02:50      0.56    0.39    1.00
  YS02164001YS02001641 CONDUIT    436.81     0  02:50      0.56    0.60    1.00
  YS02001641YS02001644 CONDUIT    436.71     0  02:50      0.56    1.41    1.00
  YS02001647YS02001649 CONDUIT    665.61     0  02:50      0.85    0.35    1.00
  YS02006553YS02006556 CONDUIT    667.46     0  03:17      0.85    0.57    1.00
  YS02006556YS02006558 CONDUIT    667.72     0  03:17      0.85    0.53    1.00
  YSB6556YSB1171       CONDUIT     24.81     0  03:03      0.09    0.03    0.67
  YS02001907YS02006553 CONDUIT    667.40     0  03:17      0.74    0.79    1.00
  YS02006558YS02006561 CONDUIT    964.06     0  03:00      3.41    2.13    1.00
  YS02001633YS02163601 CONDUIT    436.63     0  02:50      0.56    0.46    1.00
  YS02001644YS02001647 CONDUIT    665.61     0  02:50      0.85    0.39    1.00
  YS02001745YS02001748 CONDUIT    478.81     0  02:43      1.48    0.18    0.94
  YS02001748YS02001751 CONDUIT    309.60     0  03:01      1.05    0.16    1.00
  YS02001751YS02001754 CONDUIT    309.32     0  03:01      0.88    0.15    1.00
  YS02001754YS02001757 CONDUIT    309.63     0  03:01      0.39    0.12    1.00
  YS02001882YS02001884 CONDUIT     50.04     0  02:47      0.09    0.06    1.00
  YS02001884YS02001887 CONDUIT     62.50     0  02:45      0.08    0.08    1.00
  YS02001890YS02001895 CONDUIT    453.48     0  03:01      0.58    0.21    1.00
  YS02001895YS02001898 CONDUIT    453.44     0  03:01      0.59    0.79    1.00
  YS02001898YS02001901 CONDUIT    453.59     0  03:01      0.58    0.29    1.00
  YS02001901YS02001904 CONDUIT    453.56     0  03:01      0.58    0.70    1.00
  YS02001904YS02001907 CONDUIT    453.63     0  03:01      0.58    0.16    1.00
  YS02001887YS02001890 CONDUIT    453.52     0  03:01      0.58    0.78    1.00
  YS02001652YS02001649 CONDUIT    375.56     0  03:02      0.50    0.19    1.00
  YS02001655YS02001652 CONDUIT    375.23     0  03:02      0.93    0.18    1.00
  YS02001658YS02001655 CONDUIT    374.86     0  03:02      1.21    0.16    1.00
  YS02001661YS02001658 CONDUIT    386.70     0  03:01      1.56    0.15    1.00
  YS02001664YS02001661 CONDUIT    692.28     0  02:53      1.58    0.22    0.71
  YSB1154YSB6556       CONDUIT     24.91     0  03:01      0.18    0.04    0.56
  YSB1174YSB1171       CONDUIT     18.78     0  03:01      0.07    0.03    0.68
  YSB1171HS02004479    CONDUIT     42.82     0  03:02      0.54    0.03    0.53
  HS02004881HS02006253 CONDUIT     79.15     0  03:01      1.62    0.02    0.20
  YS02001793JiankangQianchi CONDUIT    965.48     0  03:00     13.02    0.08    1.00
  YS02001757CaochengTiaoxuchi CONDUIT   1774.36     0  02:51      2.39    0.78    1.00
  WSF200WS02003060     CONDUIT    666.21     0  03:06      1.87    0.15    0.36
  1                    CONDUIT    940.76     0  02:54      3.27    0.33    0.39
  2                    CONDUIT     73.26     0  03:03      4.44    0.18    0.28
  3                    CONDUIT    535.14     0  03:02      9.89    0.85    0.72
  4                    CONDUIT      0.00     0  00:00      0.00    0.00    0.00
  CC-Pump-1            PUMP         0.00     0  00:00              0.00
  CC-Pump-2            PUMP       200.00     0  01:59              1.00
  JK-Pump-1            PUMP       300.00     0  02:50              1.00
  JK-Pump-2            PUMP       300.00     0  00:00              1.00
  XR-Pump-1            PUMP        95.00     0  00:00              1.00
  XR-Pump-2            PUMP         0.00     0  00:00              0.00
  XR-Pump-3            PUMP        95.00     0  00:00              1.00
  XR-Pump-4            PUMP        95.00     0  00:00              1.00
  
  
  ***************************
  Flow Classification Summary
  ***************************
  
  -------------------------------------------------------------------------------------
                      Adjusted    ---------- Fraction of Time in Flow Class ---------- 
                       /Actual         Up    Down  Sub   Sup   Up    Down  Norm  Inlet 
  Conduit               Length    Dry  Dry   Dry   Crit  Crit  Crit  Crit  Ltd   Ctrl  
  -------------------------------------------------------------------------------------
  WS02003066WSF200        1.00   0.06  0.00  0.00  0.00  0.94  0.00  0.00  0.61  0.00
  WS02006287WS02006284    1.00   0.04  0.01  0.00  0.57  0.38  0.00  0.00  0.65  0.00
  WS02006284WS02006280    1.00   0.04  0.00  0.00  0.00  0.00  0.00  0.96  0.00  0.00
  WS02006280WS02006229    1.00   0.04  0.00  0.00  0.00  0.00  0.00  0.96  0.00  0.00
  WS02006229WS02006228    1.00   0.00  0.00  0.00  0.99  0.00  0.00  0.01  0.00  0.00
  WS02006256WS02006235    1.00   0.00  0.00  0.00  1.00  0.00  0.00  0.00  0.00  0.00
  WS02006253WS02006251    1.00   0.03  0.01  0.00  0.96  0.00  0.00  0.00  0.00  0.00
  WS02006252WS02006251    1.00   0.07  0.00  0.00  0.00  0.00  0.93  0.00  0.00  0.00
  WS02006251WS02006249    1.00   0.00  0.00  0.00  1.00  0.00  0.00  0.00  0.22  0.00
  WS02006249WS02006248    1.00   0.00  0.02  0.00  0.92  0.00  0.06  0.00  0.00  0.00
  WS02006248WS02006247    1.00   0.02  0.00  0.00  0.98  0.00  0.00  0.00  0.11  0.00
  WS02006247WS02006245    1.00   0.02  0.00  0.00  0.98  0.00  0.00  0.00  0.00  0.00
  WS02006245WS02006243    1.00   0.01  0.00  0.00  0.95  0.00  0.00  0.03  0.01  0.00
  WS02006243WS02006242    1.00   0.01  0.00  0.00  0.99  0.00  0.00  0.00  0.20  0.00
  WS02006242WS02006240    1.00   0.00  0.00  0.00  1.00  0.00  0.00  0.00  0.00  0.00
  WS02006240WS02006239    1.00   0.00  0.00  0.00  0.97  0.00  0.00  0.03  0.01  0.00
  WS02006239WS02006238    1.00   0.00  0.00  0.00  1.00  0.00  0.00  0.00  0.01  0.00
  WS02006238WS02006235    1.00   0.00  0.00  0.00  1.00  0.00  0.00  0.00  0.00  0.00
  WS02006235WS02006234    1.00   0.00  0.00  0.00  0.97  0.00  0.03  0.00  0.00  0.00
  WS02006234WS02006232    1.00   0.00  0.00  0.00  1.00  0.00  0.00  0.00  0.10  0.00
  WS02006232WS02006231    1.00   0.00  0.00  0.00  0.99  0.00  0.00  0.00  0.00  0.00
  WS02006231WS02006230    1.00   0.00  0.00  0.00  0.52  0.00  0.47  0.00  0.00  0.00
  WS02006230WS02006229    1.00   0.00  0.00  0.00  0.99  0.00  0.00  0.01  0.01  0.00
  WS02006228WS02006109    1.00   0.00  0.00  0.00  1.00  0.00  0.00  0.00  0.00  0.00
  WS02006116WS02004401    1.00   0.02  0.00  0.00  0.98  0.00  0.00  0.00  0.00  0.00
  WS02006115WS02006116    1.00   0.02  0.00  0.00  0.97  0.00  0.00  0.01  0.00  0.00
  WS02006113WS02006111    1.00   0.02  0.00  0.00  0.00  0.98  0.00  0.00  0.10  0.00
  WS02006112WS02006115    1.00   0.02  0.00  0.00  0.98  0.00  0.00  0.00  0.00  0.00
  WS02006111WS02006112    1.00   0.02  0.00  0.00  0.98  0.00  0.00  0.00  0.91  0.00
  WS02006110WS02006113    1.00   0.01  0.01  0.00  0.98  0.00  0.00  0.00  0.00  0.00
  WS02006109WS02006110    1.00   0.00  0.01  0.00  0.98  0.00  0.01  0.00  0.00  0.00
  WS02004411WS02004412    1.00   0.04  0.00  0.00  0.96  0.00  0.00  0.00  0.00  0.00
  WS02004401WS02004402    1.00   0.02  0.00  0.00  0.98  0.00  0.00  0.00  0.00  0.00
  WS02004413WS02003067    1.00   0.04  0.01  0.00  0.00  0.00  0.95  0.00  0.00  0.00
  WS02004412WS02004413    1.00   0.04  0.00  0.00  0.96  0.00  0.00  0.00  0.03  0.00
  WS02004410WS02004411    1.00   0.04  0.00  0.00  0.96  0.00  0.00  0.00  0.04  0.00
  WS02004409WS02004410    1.00   0.03  0.00  0.00  0.97  0.00  0.00  0.00  0.04  0.00
  WS02004407WS02004409    1.00   0.03  0.00  0.00  0.96  0.00  0.00  0.00  0.89  0.00
  WS02004406WS02004407    1.00   0.00  0.03  0.00  0.97  0.00  0.00  0.00  0.00  0.00
  WS02004405WS02004406    1.00   0.00  0.00  0.00  1.00  0.00  0.00  0.00  0.01  0.00
  WS02004404WS02004405    1.00   0.00  0.00  0.00  1.00  0.00  0.00  0.00  0.00  0.00
  WS02004403WS02004404    1.00   0.00  0.02  0.00  0.98  0.00  0.00  0.00  0.01  0.00
  WS02004402WS02004403    1.00   0.02  0.00  0.00  0.98  0.00  0.00  0.00  0.00  0.00
  WS02004139WS02001211    1.00   0.00  0.00  0.00  1.00  0.00  0.00  0.00  0.00  0.00
  WS02004138WS02004139    1.00   0.00  0.00  0.00  0.99  0.01  0.00  0.00  1.00  0.00
  WS02003067WS02003066    1.00   0.05  0.01  0.00  0.95  0.00  0.00  0.00  0.00  0.00
  WS02001213WS02003059    1.00   0.00  0.00  0.00  0.99  0.00  0.00  0.00  0.00  0.00
  WS02001212WS02001213    1.00   0.00  0.00  0.00  0.91  0.00  0.08  0.00  0.00  0.00
  WS02001211WS02001212    1.00   0.00  0.00  0.00  1.00  0.00  0.00  0.00  0.00  0.00
  WS02003072WS02003073    1.00   0.00  0.00  0.00  0.00  0.00  0.00  1.00  0.00  0.00
  WS02003069WS02003072    1.00   0.00  0.00  0.00  0.99  0.01  0.00  0.00  0.21  0.00
  WS02003060WS02003069    1.00   0.00  0.00  0.00  0.99  0.01  0.00  0.00  0.13  0.00
  WS02003059WS02003060    1.00   0.00  0.00  0.00  1.00  0.00  0.00  0.00  0.01  0.00
  HS02004901HS02004770    1.00   0.04  0.00  0.00  0.96  0.00  0.00  0.00  0.00  0.00
  HS02004876HS02004881    1.00   0.02  0.00  0.00  0.89  0.09  0.00  0.00  0.00  0.00
  HS02004870HS02004876    1.00   0.00  0.00  0.00  0.99  0.00  0.00  0.00  0.95  0.00
  HS02004842HS02004848    1.00   0.00  0.04  0.00  0.96  0.00  0.00  0.00  0.58  0.00
  HS02004837HS02004842    1.00   0.00  0.00  0.00  0.99  0.01  0.00  0.00  0.11  0.00
  HS02004830HS02004837    1.00   0.00  0.00  0.00  1.00  0.00  0.00  0.00  0.99  0.00
  HS02004824HS02004830    1.00   0.00  0.00  0.00  1.00  0.00  0.00  0.00  0.00  0.00
  HS02004817HS02004824    1.00   0.00  0.00  0.00  1.00  0.00  0.00  0.00  1.00  0.00
  HS02004770HS02004777    1.00   0.00  0.04  0.00  0.96  0.00  0.00  0.00  0.03  0.00
  HS02004799HS02004480    1.00   0.00  0.02  0.00  0.95  0.00  0.02  0.00  0.00  0.00
  HS02004792HS02004799    1.00   0.00  0.00  0.00  0.99  0.01  0.00  0.00  0.98  0.00
  HS02004788HS02004792    1.00   0.00  0.00  0.00  0.99  0.01  0.00  0.00  0.98  0.00
  HS02004785HS02004788    1.00   0.00  0.00  0.00  1.00  0.00  0.00  0.00  0.00  0.00
  HS02004777HS02004785    1.00   0.00  0.00  0.00  1.00  0.00  0.00  0.00  0.14  0.00
  HS02004480HS02004478    1.00   0.04  0.00  0.00  0.64  0.00  0.00  0.32  0.00  0.00
  HS02004479HS02004480    1.00   0.02  0.00  0.00  0.98  0.00  0.00  0.00  0.12  0.00
  HS02004862HS02004870    1.00   0.00  0.00  0.00  1.00  0.00  0.00  0.00  0.05  0.00
  HS02004848HS02004852    1.00   0.04  0.00  0.00  0.96  0.00  0.00  0.00  0.61  0.00
  HS02004856HS02004862    1.00   0.00  0.05  0.00  0.95  0.00  0.00  0.00  0.80  0.00
  HS02004852HS02004856    1.00   0.04  0.00  0.00  0.96  0.00  0.00  0.00  0.85  0.00
  HS02004802HS02004478    1.00   0.04  0.00  0.00  0.96  0.00  0.00  0.00  0.03  0.00
  HS02004478WS02006287    1.00   0.05  0.00  0.00  0.71  0.24  0.00  0.00  0.66  0.00
  HS02004817HS02004807    1.00   0.00  0.04  0.00  0.96  0.00  0.00  0.00  0.01  0.00
  HS02004807HS02004802    1.00   0.04  0.00  0.00  0.96  0.00  0.00  0.00  0.00  0.00
  YS02001759YS02001757    1.00   0.00  0.00  0.00  1.00  0.00  0.00  0.00  0.16  0.00
  YS02001762YS02001759    1.00   0.00  0.00  0.00  1.00  0.00  0.00  0.00  0.04  0.00
  YS02001765YS02001762    1.00   0.00  0.00  0.00  1.00  0.00  0.00  0.00  0.16  0.00
  YS02001770YS02001767    1.00   0.00  0.00  0.00  1.00  0.00  0.00  0.00  0.00  0.00
  YS02001774YS02001770    1.00   0.00  0.04  0.00  0.96  0.00  0.00  0.00  0.04  0.00
  YS02001779YS02001774    1.00   0.00  0.00  0.00  1.00  0.00  0.00  0.00  0.21  0.00
  YS02001649YS02001757    1.00   0.00  0.00  0.00  1.00  0.00  0.00  0.00  0.17  0.00
  YS02001767YS02001765    1.00   0.00  0.00  0.00  1.00  0.00  0.00  0.00  0.00  0.00
  YS02006561YS02001783    1.00   0.05  0.00  0.00  0.33  0.62  0.00  0.00  0.55  0.00
  YS02001783YS02001784    1.00   0.00  0.05  0.00  0.95  0.00  0.00  0.00  0.01  0.00
  YS02001784YS02001785    1.00   0.00  0.00  0.00  1.00  0.00  0.00  0.00  0.20  0.00
  YS02001788YS02001790    1.00   0.00  0.00  0.00  0.36  0.64  0.00  0.00  0.48  0.00
  YS02001790YS02001791    1.00   0.00  0.00  0.00  0.34  0.66  0.00  0.00  0.49  0.00
  YS02001791YS02001793    1.00   0.00  0.00  0.00  0.36  0.64  0.00  0.00  0.01  0.00
  YS02001910YS02001907    1.00   0.00  0.00  0.00  0.98  0.00  0.00  0.02  0.13  0.00
  YS02001786YS02001788    1.00   0.00  0.00  0.00  0.36  0.64  0.00  0.00  0.00  0.00
  YS02001915YS02001910    1.00   0.00  0.00  0.00  0.99  0.01  0.00  0.00  0.18  0.00
  YS02001918YS02001915    1.00   0.00  0.01  0.00  0.98  0.01  0.00  0.00  0.58  0.00
  YS02001923YS02001920    1.00   0.00  0.00  0.00  1.00  0.00  0.00  0.00  0.86  0.00
  YS02001926YS02001923    1.00   0.00  0.03  0.00  0.15  0.00  0.82  0.00  0.00  0.00
  YS02001929YS02001926    1.00   0.00  0.04  0.00  0.96  0.00  0.00  0.00  0.78  0.00
  YS02001920YS02001918    1.00   0.00  0.01  0.00  0.99  0.00  0.00  0.00  0.00  0.00
  YS02001629YS02163301    1.00   0.05  0.00  0.00  0.95  0.00  0.00  0.00  0.00  0.00
  YS02001619YS02001622    1.00   0.04  0.00  0.00  0.96  0.00  0.00  0.00  0.00  0.00
  YS02001622YS02001625    1.00   0.04  0.00  0.00  0.96  0.00  0.00  0.00  0.07  0.00
  YS02001625YS02001629    1.00   0.04  0.01  0.00  0.93  0.00  0.02  0.00  0.00  0.00
  YS02163301YS02001633    1.00   0.00  0.05  0.00  0.95  0.00  0.00  0.00  0.00  0.00
  YS02163601YS02164001    1.00   0.00  0.03  0.00  0.97  0.00  0.00  0.00  0.00  0.00
  YS02164001YS02001641    1.00   0.01  0.02  0.00  0.97  0.00  0.00  0.00  0.06  0.00
  YS02001641YS02001644    1.00   0.00  0.01  0.00  0.99  0.00  0.00  0.00  0.00  0.00
  YS02001647YS02001649    1.00   0.00  0.05  0.00  0.95  0.00  0.00  0.00  0.01  0.00
  YS02006553YS02006556    1.00   0.01  0.00  0.00  0.99  0.00  0.00  0.00  0.03  0.00
  YS02006556YS02006558    1.00   0.00  0.00  0.00  1.00  0.00  0.00  0.00  0.00  0.00
  YSB6556YSB1171          1.00   0.03  0.01  0.00  0.96  0.00  0.00  0.00  0.00  0.00
  YS02001907YS02006553    1.00   0.00  0.02  0.00  0.98  0.00  0.00  0.00  0.00  0.00
  YS02006558YS02006561    1.00   0.05  0.00  0.00  0.18  0.77  0.00  0.00  0.47  0.00
  YS02001633YS02163601    1.00   0.00  0.01  0.00  0.99  0.00  0.00  0.00  0.16  0.00
  YS02001644YS02001647    1.00   0.00  0.05  0.00  0.95  0.00  0.00  0.00  0.00  0.00
  YS02001745YS02001748    1.00   0.00  0.00  0.00  0.89  0.01  0.00  0.10  0.05  0.00
  YS02001748YS02001751    1.00   0.00  0.00  0.00  0.97  0.03  0.00  0.00  0.15  0.00
  YS02001751YS02001754    1.00   0.00  0.00  0.00  0.94  0.00  0.00  0.06  0.02  0.00
  YS02001754YS02001757    1.00   0.00  0.00  0.00  0.99  0.01  0.00  0.00  0.20  0.00
  YS02001882YS02001884    1.00   0.04  0.00  0.00  0.95  0.00  0.00  0.00  0.00  0.00
  YS02001884YS02001887    1.00   0.03  0.01  0.00  0.96  0.00  0.00  0.00  0.00  0.00
  YS02001890YS02001895    1.00   0.00  0.04  0.00  0.95  0.00  0.00  0.00  0.00  0.00
  YS02001895YS02001898    1.00   0.05  0.00  0.00  0.95  0.00  0.01  0.00  0.00  0.00
  YS02001898YS02001901    1.00   0.05  0.00  0.00  0.95  0.00  0.00  0.00  0.02  0.00
  YS02001901YS02001904    1.00   0.05  0.00  0.00  0.95  0.00  0.00  0.00  0.00  0.00
  YS02001904YS02001907    1.00   0.00  0.04  0.00  0.95  0.00  0.00  0.00  0.00  0.00
  YS02001887YS02001890    1.00   0.00  0.00  0.00  0.98  0.00  0.02  0.00  0.00  0.00
  YS02001652YS02001649    1.00   0.00  0.00  0.00  1.00  0.00  0.00  0.00  0.18  0.00
  YS02001655YS02001652    1.00   0.00  0.00  0.00  0.94  0.00  0.00  0.06  0.02  0.00
  YS02001658YS02001655    1.00   0.00  0.04  0.00  0.93  0.03  0.00  0.00  0.11  0.00
  YS02001661YS02001658    1.00   0.04  0.00  0.00  0.89  0.07  0.00  0.00  0.06  0.00
  YS02001664YS02001661    1.00   0.04  0.00  0.00  0.87  0.09  0.00  0.00  0.22  0.00
  YSB1154YSB6556          1.00   0.04  0.00  0.00  0.96  0.00  0.00  0.00  0.02  0.00
  YSB1174YSB1171          1.00   0.03  0.01  0.00  0.97  0.00  0.00  0.00  0.00  0.00
  YSB1171HS02004479       1.00   0.03  0.00  0.00  0.97  0.00  0.00  0.00  0.11  0.00
  HS02004881HS02006253    1.00   0.03  0.00  0.00  0.88  0.01  0.00  0.09  0.72  0.00
  YS02001793JiankangQianchi    1.00   0.00  0.00  0.00  0.54  0.46  0.00  0.00  0.17  0.00
  YS02001757CaochengTiaoxuchi    1.00   0.00  0.07  0.00  0.92  0.01  0.00  0.00  0.00  0.00
  WSF200WS02003060        1.00   0.00  0.06  0.00  0.44  0.50  0.00  0.00  0.12  0.00
  1                       1.00   0.00  0.00  0.00  0.00  1.00  0.00  0.00  0.33  0.00
  2                       1.00   0.81  0.00  0.00  0.00  0.19  0.00  0.00  0.01  0.00
  3                       1.00   0.05  0.00  0.00  0.00  0.95  0.00  0.00  0.21  0.00
  4                       1.00   1.00  0.00  0.00  0.00  0.00  0.00  0.00  0.00  0.00
  
  
  *************************
  Conduit Surcharge Summary
  *************************
  
  ----------------------------------------------------------------------------
                                                           Hours        Hours 
                         --------- Hours Full --------   Above Full   Capacity
  Conduit                Both Ends  Upstream  Dnstream   Normal Flow   Limited
  ----------------------------------------------------------------------------
  WS02006229WS02006228        1.64      1.68      1.64      5.63         1.64
  WS02006256WS02006235        6.14      6.14      6.91      4.61         0.01
  WS02006249WS02006248        0.01      0.01      0.01      5.55         0.01
  WS02006247WS02006245        0.01      0.01      0.01      5.66         0.01
  WS02006245WS02006243        0.01      0.01      0.02      0.01         0.01
  WS02006243WS02006242        0.17      0.17      1.04      0.01         0.01
  WS02006242WS02006240        0.86      0.86      1.16      0.01         0.01
  WS02006240WS02006239        0.93      0.93      1.04      0.01         0.01
  WS02006239WS02006238        1.21      1.21      1.29      0.01         0.01
  WS02006238WS02006235        1.27      1.27      1.38      0.01         0.01
  WS02006235WS02006234        1.07      1.07      1.23      6.17         0.01
  WS02006234WS02006232        1.16      1.16      1.48      0.01         0.01
  WS02006232WS02006231        0.84      0.84      1.48      0.01         0.01
  WS02006231WS02006230        0.66      0.66      0.91      6.15         0.01
  WS02006230WS02006229        2.14      4.80      2.14      6.25         2.14
  WS02006228WS02006109        1.65      1.90      1.65      5.92         1.65
  WS02006112WS02006115        0.01      0.01      1.25      0.01         0.01
  WS02006111WS02006112        0.01      0.01      5.66      0.01         0.01
  WS02006110WS02006113        0.01      0.01      1.75      0.01         0.01
  WS02006109WS02006110        1.12      1.12      1.90      1.12         0.01
  WS02004406WS02004407        0.01      0.01      0.40      0.01         0.01
  WS02004405WS02004406        0.40      0.59      0.40      1.19         0.40
  WS02004404WS02004405        0.59      0.72      0.59      6.00         0.59
  WS02004403WS02004404        0.01      0.01      0.72      0.01         0.01
  WS02003072WS02003073        0.01      0.01      0.01      5.82         0.01
  HS02004480HS02004478        0.01      0.01      0.01      0.25         0.01
  YS02001759YS02001757        5.66      5.66      5.74      0.01         0.01
  YS02001762YS02001759        5.64      5.64      5.66      0.01         0.01
  YS02001765YS02001762        5.61      5.61      5.64      0.01         0.01
  YS02001770YS02001767        5.58      5.58      5.58      0.31         0.74
  YS02001774YS02001770        5.56      5.56      5.63      0.01         0.01
  YS02001779YS02001774        5.39      5.39      5.63      0.01         0.01
  YS02001649YS02001757        5.64      5.64      5.74      0.01         0.01
  YS02001767YS02001765        5.58      5.58      5.61      0.01         0.01
  YS02006561YS02001783        0.64      0.64      1.17      0.01         0.01
  YS02001783YS02001784        1.17      1.17      1.23      1.16         0.96
  YS02001784YS02001785        1.17      1.23      1.17      2.07         1.17
  YS02001788YS02001790        1.16      1.16      1.77      0.01         0.01
  YS02001790YS02001791        1.77      1.77      1.80      0.48         0.48
  YS02001791YS02001793        1.80      1.80      2.09      0.01         0.01
  YS02001910YS02001907        0.97      0.97      1.48      0.01         0.01
  YS02001786YS02001788        1.16      1.17      1.16      1.67         1.16
  YS02001915YS02001910        0.76      0.76      0.97      0.01         0.01
  YS02001918YS02001915        0.51      0.51      0.76      0.01         0.01
  YS02001923YS02001920        0.27      0.27      0.55      0.01         0.01
  YS02001920YS02001918        0.51      0.51      0.55      0.01         0.01
  YS02001629YS02163301        5.57      5.57      5.58      0.01         0.01
  YS02001619YS02001622        5.24      5.24      5.25      0.01         0.01
  YS02001622YS02001625        5.25      5.25      5.43      0.01         0.01
  YS02001625YS02001629        5.24      5.24      5.43      0.01         0.01
  YS02163301YS02001633        5.58      5.58      5.61      0.01         0.01
  YS02163601YS02164001        5.61      5.61      5.64      0.01         0.01
  YS02164001YS02001641        5.61      5.61      5.62      0.01         0.01
  YS02001641YS02001644        5.62      5.62      5.62      1.22         1.25
  YS02001647YS02001649        5.42      5.42      5.64      0.01         0.01
  YS02006553YS02006556        1.20      1.20      1.55      0.01         0.01
  YS02006556YS02006558        1.37      1.37      1.62      0.01         0.01
  YS02001907YS02006553        2.09      2.09      2.30      0.01         0.01
  YS02006558YS02006561        0.86      1.15      0.86      1.94         0.86
  YS02001633YS02163601        5.60      5.60      5.64      0.01         0.01
  YS02001644YS02001647        5.42      5.42      5.62      0.01         0.01
  YS02001745YS02001748        0.01      0.01      5.05      0.01         0.01
  YS02001748YS02001751        5.10      5.10      5.24      0.01         0.01
  YS02001751YS02001754        5.24      5.24      5.40      0.01         0.01
  YS02001754YS02001757        5.42      5.42      5.74      0.01         0.01
  YS02001882YS02001884        0.77      0.77      0.81      0.01         0.01
  YS02001884YS02001887        0.87      0.87      0.89      0.01         0.01
  YS02001890YS02001895        0.74      0.74      0.98      0.01         0.01
  YS02001895YS02001898        0.73      0.73      0.74      0.01         0.01
  YS02001898YS02001901        0.75      0.75      0.85      0.01         0.01
  YS02001901YS02001904        0.83      0.83      0.85      0.01         0.01
  YS02001904YS02001907        0.83      0.83      1.58      0.01         0.01
  YS02001887YS02001890        0.92      0.92      0.94      0.01         0.01
  YS02001652YS02001649        5.43      5.43      5.64      0.01         0.01
  YS02001655YS02001652        5.26      5.26      5.41      0.01         0.01
  YS02001658YS02001655        5.08      5.08      5.26      0.01         0.01
  YS02001661YS02001658        0.21      0.21      5.08      0.01         0.01
  YS02001664YS02001661        0.01      0.01      1.22      0.01         0.01
  YS02001793JiankangQianchi        1.99      1.99      3.07      0.01         0.01
  YS02001757CaochengTiaoxuchi        4.90      4.90      5.74      0.01         0.01
  
  
  ***************
  Pumping Summary
  ***************
  
  ---------------------------------------------------------------------------------------------------------
                                                  Min       Avg       Max     Total     Power    % Time Off
                        Percent   Number of      Flow      Flow      Flow    Volume     Usage    Pump Curve
  Pump                 Utilized   Start-Ups       LPS       LPS       LPS  10^6 ltr     Kw-hr    Low   High
  ---------------------------------------------------------------------------------------------------------
  CC-Pump-1                0.00           0      0.00      0.00      0.00     0.000      0.00    0.0    0.0
  CC-Pump-2               75.82           1      0.00    192.56    200.00     4.121      4.79    0.0   10.3
  JK-Pump-1               61.69           7      0.00    170.56    300.00     2.608     28.49    0.0    0.0
  JK-Pump-2              100.00           1      0.00    228.39    300.00     5.189     60.33    0.0    0.0
  XR-Pump-1               78.71          10      0.00     69.94     95.00     1.539     11.39    0.0    0.0
  XR-Pump-2                0.00           0      0.00      0.00      0.00     0.000      0.00    0.0    0.0
  XR-Pump-3               97.87           3      0.00     84.76     95.00     2.337     17.31    0.0    0.0
  XR-Pump-4               95.73           7      0.00     72.57     95.00     1.995     15.15    0.0    0.0
  

  Analysis begun on:  Thu Jan  6 16:46:27 2022
  Analysis ended on:  Thu Jan  6 16:46:31 2022
  Total elapsed time: 00:00:04