
  EPA STORM WATER MANAGEMENT MODEL - VERSION 5.1 (Build 5.3.0.dev0)
  --------------------------------------------------------------

  WARNING 04: minimum elevation drop used for Conduit WS02004404WS02004405
  WARNING 03: negative offset ignored for Link YS02001904YS02001907
  
  *********************************************************
  NOTE: The summary statistics displayed in this report are
  based on results found at every computational time step,  
  not just on results from each reporting time step.
  *********************************************************
  
  ****************
  Analysis Options
  ****************
  Flow Units ............... LPS
  Process Models:
    Rainfall/Runoff ........ YES
    RDII ................... NO
    Snowmelt ............... NO
    Groundwater ............ NO
    Flow Routing ........... YES
    Ponding Allowed ........ NO
    Water Quality .......... NO
  Infiltration Method ...... HORTON
  Flow Routing Method ...... DYNWAVE
  Surcharge Method ......... EXTRAN
  Starting Date ............ 08/28/2015 08:00:00
  Ending Date .............. 08/28/2015 15:50:00
  Antecedent Dry Days ...... 8.0
  Report Time Step ......... 00:01:00
  Wet Time Step ............ 00:01:00
  Dry Time Step ............ 00:01:00
  Routing Time Step ........ 5.00 sec
  Variable Time Step ....... YES
  Maximum Trials ........... 8
  Number of Threads ........ 4
  Head Tolerance ........... 0.001500 m
  
  
  **************************        Volume         Depth
  Runoff Quantity Continuity     hectare-m            mm
  **************************     ---------       -------
  Total Precipitation ......         5.556        12.164
  Evaporation Loss .........         0.000         0.000
  Infiltration Loss ........         1.427         3.124
  Surface Runoff ...........         3.072         6.726
  Final Storage ............         1.058         2.316
  Continuity Error (%) .....        -0.016
  
  
  **************************        Volume        Volume
  Flow Routing Continuity        hectare-m      10^6 ltr
  **************************     ---------     ---------
  Dry Weather Inflow .......         0.616         6.165
  Wet Weather Inflow .......         3.071        30.709
  Groundwater Inflow .......         0.000         0.000
  RDII Inflow ..............         0.000         0.000
  External Inflow ..........         0.102         1.024
  External Outflow .........         1.954        19.537
  Flooding Loss ............         1.340        13.396
  Evaporation Loss .........         0.000         0.000
  Exfiltration Loss ........         0.000         0.000
  Initial Stored Volume ....         0.076         0.761
  Final Stored Volume ......         0.654         6.545
  Continuity Error (%) .....        -2.121
  
  
  *************************
  Highest Continuity Errors
  *************************
  Node HS02004842 (16.24%)
  Node YS02001884 (11.71%)
  Node JK-storage (-9.32%)
  Node YSB1171 (3.12%)
  Node HS02004817 (2.99%)
  
  
  ***************************
  Time-Step Critical Elements
  ***************************
  Link 3 (63.27%)
  Link WS02006252WS02006251 (30.90%)
  Link WS02006280WS02006229 (1.25%)
  
  
  ********************************
  Highest Flow Instability Indexes
  ********************************
  Link YS02163601YS02164001 (41)
  Link YS02163301YS02001633 (40)
  Link YS02001629YS02163301 (40)
  Link YS02001619YS02001622 (40)
  Link YS02164001YS02001641 (38)
  
  
  *************************
  Routing Time Step Summary
  *************************
  Minimum Time Step           :     0.50 sec
  Average Time Step           :     0.79 sec
  Maximum Time Step           :     5.00 sec
  Percent in Steady State     :    -0.00
  Average Iterations per Step :     4.43
  Percent Not Converging      :    18.65
  
  
  ***************************
  Subcatchment Runoff Summary
  ***************************
  
  ------------------------------------------------------------------------------------------------------------------------------
                            Total      Total      Total      Total     Imperv       Perv      Total       Total     Peak  Runoff
                           Precip      Runon       Evap      Infil     Runoff     Runoff     Runoff      Runoff   Runoff   Coeff
  Subcatchment                 mm         mm         mm         mm         mm         mm         mm    10^6 ltr      LPS
  ------------------------------------------------------------------------------------------------------------------------------
  sub0                      12.16       0.00       0.00       0.85      10.05       0.00      10.05        0.01     1.91   0.826
  sub1                      12.16       0.00       0.00       1.34       9.56       0.00       9.56        0.06    14.15   0.786
  sub2                      12.16       0.00       0.00       4.50       6.75       0.00       6.75        0.06    13.75   0.555
  sub3                      12.16       0.00       0.00       4.50       6.71       0.00       6.71        0.15    32.07   0.552
  sub4                      12.16       0.00       0.00       1.34       9.40       0.00       9.40        0.20    40.20   0.773
  sub5                      12.16       0.00       0.00       0.85       9.99       0.00       9.99        0.11    25.19   0.822
  sub7                      12.16       0.00       0.00       1.09       9.81       0.00       9.81        0.03     7.55   0.807
  sub8                      12.16       0.00       0.00       1.09       9.80       0.00       9.80        0.06    14.17   0.806
  sub9                      12.16       0.00       0.00       1.09       9.80       0.00       9.80        0.05    10.64   0.806
  sub10                     12.16       0.00       0.00       0.97       9.89       0.00       9.89        0.11    24.40   0.813
  sub11                     12.16       0.00       0.00       0.97       9.91       0.00       9.91        0.12    26.15   0.815
  sub12                     12.16       0.00       0.00       1.58       9.39       0.00       9.39        0.08    19.06   0.772
  sub14                     12.16       0.00       0.00       1.09       9.80       0.00       9.80        0.09    21.02   0.805
  sub15                     12.16       0.00       0.00       3.65       7.53       0.00       7.53        0.13    29.11   0.619
  sub16                     12.16       0.00       0.00       4.01       7.23       0.00       7.23        0.08    17.47   0.594
  sub17                     12.16       0.00       0.00       3.89       7.34       0.00       7.34        0.06    14.47   0.603
  sub22                     12.16       0.00       0.00       5.23       6.14       0.00       6.14        0.39    88.27   0.505
  sub23                     12.16       0.00       0.00       4.50       6.79       0.00       6.79        0.32    73.89   0.558
  sub60                     12.16       0.00       0.00       1.46       7.71       0.00       7.71        2.34   297.17   0.634
  sub61                     12.16       0.00       0.00       2.07       7.87       0.00       7.87        2.43   359.80   0.647
  sub62                     12.16       0.00       0.00       0.97       8.55       0.00       8.55        2.63   372.87   0.703
  sub63                     12.16       0.00       0.00       3.53       6.89       0.00       6.89        2.09   327.80   0.567
  sub64                     12.16       0.00       0.00       1.82       7.40       0.00       7.40        2.25   282.66   0.608
  sub65                     12.16       0.00       0.00       1.58       7.52       0.00       7.52        2.31   287.20   0.618
  sub66                     12.16       0.00       0.00       3.53       6.36       0.00       6.36        1.95   257.27   0.523
  sub67                     12.16       0.00       0.00       0.97       9.05       0.00       9.05        2.79   452.90   0.744
  sub68                     12.16       0.00       0.00       1.70       8.28       0.00       8.28        2.55   391.99   0.681
  sub69                     12.16       0.00       0.00       1.82       8.61       0.00       8.61        2.01   355.79   0.708
  sub70                     12.16       8.79       0.00       7.03      11.43       0.10      11.53        2.64   335.00   0.550
  sub71                     12.16       0.00       0.00       0.97       8.31       0.00       8.31        1.96   263.63   0.683
  sub72                     12.16       0.00       0.00       0.85       6.56       0.00       6.56        1.34   129.40   0.540
  sub73                     12.16      11.23       0.00       7.88      12.47       0.08      12.54        2.95   300.52   0.536
  sub74                     12.16       0.00       0.00       9.12       2.57       0.00       2.57        1.03   189.59   0.211
  
  
  ******************
  Node Depth Summary
  ******************
  
  ---------------------------------------------------------------------------------
                                 Average  Maximum  Maximum  Time of Max    Reported
                                   Depth    Depth      HGL   Occurrence   Max Depth
  Node                 Type       Meters   Meters   Meters  days hr:min      Meters
  ---------------------------------------------------------------------------------
  WS02001211           JUNCTION     0.64     0.73     5.57     0  03:11        0.73
  WS02001212           JUNCTION     0.37     0.46     5.52     0  03:11        0.46
  WS02001213           JUNCTION     0.61     0.72     5.49     0  03:11        0.72
  WS02003069           JUNCTION     0.44     0.58     5.16     0  03:12        0.58
  WS02003072           JUNCTION     0.50     0.63     5.01     0  03:12        0.63
  WS02003073           JUNCTION     0.30     0.39     4.45     0  03:12        0.39
  WS02003060           JUNCTION     0.39     0.51     5.44     0  03:11        0.51
  WS02003066           JUNCTION     0.24     0.33     5.88     0  03:06        0.33
  WS02003059           JUNCTION     0.67     0.78     5.47     0  03:12        0.78
  WS02003067           JUNCTION     0.59     0.74     6.06     0  03:06        0.74
  WS02004401           JUNCTION     0.70     0.97     6.97     0  03:04        0.97
  WS02004402           JUNCTION     0.73     0.99     6.95     0  03:04        0.99
  WS02004403           JUNCTION     0.75     0.99     6.92     0  03:04        0.99
  WS02004404           JUNCTION     0.82     1.05     6.90     0  03:04        1.05
  WS02004406           JUNCTION     0.83     1.03     6.86     0  03:04        1.03
  WS02004409           JUNCTION     0.52     0.75     6.52     0  03:04        0.75
  WS02004410           JUNCTION     0.53     0.76     6.48     0  03:05        0.76
  WS02004411           JUNCTION     0.55     0.76     6.44     0  03:05        0.76
  WS02004412           JUNCTION     0.56     0.76     6.40     0  03:05        0.76
  WS02004413           JUNCTION     0.72     0.91     6.38     0  03:05        0.91
  WS02004405           JUNCTION     0.82     1.04     6.89     0  03:04        1.04
  WS02006109           JUNCTION     0.78     1.10     7.72     0  03:03        1.09
  WS02006110           JUNCTION     0.77     1.02     7.60     0  03:03        1.00
  WS02006111           JUNCTION     0.23     0.35     7.05     0  03:03        0.34
  WS02006112           JUNCTION     0.87     1.19     7.07     0  02:37        1.18
  WS02006113           JUNCTION     0.35     0.51     7.40     0  03:03        0.51
  WS02006115           JUNCTION     0.59     0.88     7.02     0  03:03        0.88
  WS02006116           JUNCTION     0.67     0.96     7.00     0  03:04        0.96
  WS02006230           JUNCTION     0.76     1.16     7.91     0  03:02        1.16
  WS02006231           JUNCTION     0.51     0.82     7.94     0  03:02        0.82
  WS02006232           JUNCTION     0.64     0.94     7.98     0  03:02        0.93
  WS02006234           JUNCTION     0.56     0.85     8.00     0  03:02        0.84
  WS02006235           JUNCTION     0.59     0.87     8.03     0  03:02        0.86
  WS02006238           JUNCTION     0.61     0.90     8.04     0  03:02        0.89
  WS02006240           JUNCTION     0.50     0.78     8.07     0  03:02        0.78
  WS02006242           JUNCTION     0.55     0.83     8.10     0  03:02        0.83
  WS02006243           JUNCTION     0.42     0.70     8.12     0  03:03        0.70
  WS02006245           JUNCTION     0.40     0.65     8.14     0  03:03        0.65
  WS02006247           JUNCTION     0.41     0.65     8.15     0  03:03        0.65
  WS02006248           JUNCTION     0.35     0.58     8.16     0  03:03        0.58
  WS02006249           JUNCTION     0.39     0.58     8.18     0  03:03        0.58
  WS02006239           JUNCTION     0.56     0.84     8.05     0  03:02        0.84
  WS02006251           JUNCTION     0.37     0.55     8.22     0  03:01        0.55
  WS02006252           JUNCTION     0.30     0.35     8.59     0  01:59        0.35
  WS02006253           JUNCTION     0.39     0.58     8.22     0  03:01        0.58
  WS02006256           JUNCTION     1.10     1.21     8.15     0  02:50        1.21
  WS02004138           JUNCTION     0.14     0.17     7.42     0  03:43        0.17
  WS02004407           JUNCTION     0.23     0.33     6.64     0  03:04        0.33
  WS02006228           JUNCTION     0.79     1.17     7.82     0  03:02        1.16
  WS02006229           JUNCTION     0.77     1.18     7.87     0  03:02        1.17
  WS02006280           JUNCTION     0.07     0.19     8.46     0  03:02        0.19
  WS02006284           JUNCTION     0.37     0.55     8.95     0  03:02        0.55
  WS02006287           JUNCTION     0.11     0.28     9.24     0  03:01        0.28
  WSF200               JUNCTION     0.23     0.35     5.58     0  03:07        0.35
  HS02004901           JUNCTION     0.13     0.28    10.10     0  03:01        0.28
  HS02004881           JUNCTION     0.01     0.04     9.07     0  03:01        0.04
  HS02004876           JUNCTION     0.05     0.12     9.15     0  03:01        0.12
  HS02004870           JUNCTION     0.02     0.06     9.35     0  03:01        0.06
  HS02004862           JUNCTION     0.02     0.07     9.46     0  03:01        0.07
  HS02004856           JUNCTION     0.08     0.13     9.55     0  03:01        0.13
  HS02004852           JUNCTION     0.01     0.05     9.56     0  03:01        0.05
  HS02004848           JUNCTION     0.01     0.05     9.65     0  03:01        0.05
  HS02004842           JUNCTION     0.33     0.38     9.65     0  03:01        0.38
  HS02004837           JUNCTION     0.03     0.07     9.65     0  03:01        0.07
  HS02004830           JUNCTION     0.04     0.08     9.55     0  03:01        0.08
  HS02004824           JUNCTION     0.03     0.06     9.46     0  03:01        0.06
  HS02004817           JUNCTION     0.45     0.60     9.44     0  03:01        0.60
  HS02004807           JUNCTION     0.13     0.27     9.44     0  03:01        0.27
  HS02004802           JUNCTION     0.17     0.30     9.43     0  03:01        0.30
  HS02004799           JUNCTION     0.13     0.33     9.54     0  03:01        0.33
  HS02004792           JUNCTION     0.04     0.14     9.66     0  03:01        0.14
  HS02004788           JUNCTION     0.03     0.10    10.00     0  03:01        0.10
  HS02004785           JUNCTION     0.05     0.17    10.07     0  03:01        0.17
  HS02004777           JUNCTION     0.16     0.30    10.10     0  03:01        0.30
  HS02004770           JUNCTION     0.13     0.27    10.10     0  03:01        0.27
  HS02004480           JUNCTION     0.09     0.26     9.50     0  03:01        0.26
  HS02004479           JUNCTION     0.13     0.30     9.50     0  03:01        0.30
  HS02004478           JUNCTION     0.07     0.18     9.41     0  03:01        0.18
  YS02001745           JUNCTION     0.69     0.88     8.39     0  03:27        0.87
  YS02001748           JUNCTION     1.08     2.27     9.35     0  02:42        1.32
  YS02001751           JUNCTION     1.26     2.15     9.03     0  02:42        1.53
  YS02001754           JUNCTION     1.51     2.07     8.68     0  02:42        1.81
  YS02001762           JUNCTION     1.72     2.03     8.43     0  03:07        2.02
  YS02001765           JUNCTION     1.67     2.00     8.45     0  02:42        1.97
  YS02001767           JUNCTION     1.63     1.94     8.43     0  02:42        1.92
  YS02001770           JUNCTION     1.63     1.95     8.44     0  02:42        1.91
  YS02001774           JUNCTION     1.70     2.01     8.43     0  02:42        1.97
  YS02001779           JUNCTION     1.44     1.68     8.37     0  02:42        1.68
  YS02001882           JUNCTION     0.55     1.62     8.33     0  02:52        1.60
  YS02001884           JUNCTION     0.64     1.71     8.33     0  02:52        1.70
  YS02001759           JUNCTION     1.75     2.07     8.44     0  02:45        2.06
  YS02001887           JUNCTION     0.72     1.80     8.33     0  02:59        1.78
  YS02001890           JUNCTION     0.75     1.81     8.32     0  02:52        1.80
  YS02001898           JUNCTION     0.52     1.56     8.29     0  02:52        1.55
  YS02001901           JUNCTION     0.63     1.67     8.28     0  03:00        1.67
  YS02001904           JUNCTION     0.61     1.64     8.27     0  03:00        1.63
  YS02001907           JUNCTION     0.94     1.96     8.25     0  02:52        1.96
  YS02001910           JUNCTION     0.73     1.78     8.29     0  02:53        1.77
  YS02001915           JUNCTION     0.53     1.59     8.31     0  02:54        1.57
  YS02001918           JUNCTION     0.28     1.28     8.34     0  02:53        1.25
  YS02001619           JUNCTION     1.23     1.61     8.54     0  02:34        1.47
  YS02001629           JUNCTION     1.58     1.85     8.40     0  02:39        1.84
  YS02001641           JUNCTION     1.68     1.95     8.39     0  02:44        1.93
  YS02001644           JUNCTION     1.68     1.92     8.35     0  02:43        1.92
  YS02001652           JUNCTION     1.53     2.16     8.76     0  02:55        2.02
  YS02001655           JUNCTION     1.29     2.20     9.05     0  02:39        1.90
  YS02001920           JUNCTION     0.37     1.34     8.35     0  02:53        1.32
  YS02001923           JUNCTION     0.21     1.10     8.36     0  02:53        1.09
  YS02001926           JUNCTION     0.27     0.92     8.36     0  02:53        0.89
  YS02001929           JUNCTION     0.15     0.69     8.39     0  02:53        0.67
  YS02001658           JUNCTION     1.02     2.30     9.44     0  02:39        1.67
  YS02001661           JUNCTION     0.80     2.46     9.86     0  02:56        1.37
  YS02001664           JUNCTION     0.36     0.57     8.49     0  02:53        0.56
  YS02001622           JUNCTION     1.25     1.62     8.52     0  02:34        1.49
  YS02001633           JUNCTION     1.67     1.99     8.45     0  02:43        1.94
  YS02001649           JUNCTION     1.72     2.05     8.44     0  02:54        2.05
  YS02001757           JUNCTION     1.85     2.19     8.45     0  02:42        2.16
  YS02001895           JUNCTION     0.51     1.56     8.30     0  02:52        1.54
  YS02001625           JUNCTION     1.54     1.78     8.38     0  02:37        1.78
  YS02163301           JUNCTION     1.61     1.92     8.44     0  02:43        1.87
  YS02163601           JUNCTION     1.72     2.02     8.42     0  02:44        1.98
  YS02164001           JUNCTION     1.66     1.95     8.41     0  02:44        1.91
  YS02001647           JUNCTION     1.51     1.81     8.42     0  02:39        1.79
  YSB1154              JUNCTION     0.27     0.45     9.51     0  03:01        0.45
  YSB6556              JUNCTION     0.16     0.34     9.51     0  03:01        0.34
  YSB1174              JUNCTION     0.22     0.40     9.51     0  03:01        0.40
  YSB1171              JUNCTION     0.42     0.60     9.51     0  03:01        0.60
  YS02006553           JUNCTION     0.94     1.96     8.25     0  03:00        1.96
  YS02006561           JUNCTION     0.32     1.08     7.74     0  02:54        1.07
  YS02006556           JUNCTION     0.91     1.92     8.23     0  03:00        1.91
  YS02006558           JUNCTION     0.95     1.96     8.23     0  03:00        1.95
  YS02001783           JUNCTION     0.54     2.40     8.54     0  02:37        1.46
  YS02001784           JUNCTION     0.56     2.29     8.36     0  02:37        1.41
  YS02001786           JUNCTION     0.50     2.12     8.15     0  02:37        1.25
  YS02001788           JUNCTION     0.43     2.11     8.08     0  02:37        1.12
  YS02001790           JUNCTION     0.54     1.96     7.60     0  02:36        1.29
  YS02001791           JUNCTION     0.51     1.68     7.15     0  02:36        1.27
  YS02001793           JUNCTION     0.72     2.38     7.21     0  02:34        1.80
  WS02004139           JUNCTION     0.58     0.67     5.58     0  03:10        0.67
  WSC                  OUTFALL      0.30     0.39     1.06     0  03:13        0.39
  3                    OUTFALL      0.12     0.21     6.21     0  02:50        0.21
  4                    OUTFALL      0.01     0.08     7.08     0  03:03        0.08
  5                    OUTFALL      0.00     0.00     5.00     0  00:00        0.00
  JK-storage           STORAGE      2.59     5.80     6.60     0  02:37        5.80
  CC-storage           STORAGE      1.07     1.37     8.37     0  03:26        1.37
  XR-storage           STORAGE      7.60     7.72     5.72     0  01:51        7.72
  
  
  *******************
  Node Inflow Summary
  *******************
  
  -------------------------------------------------------------------------------------------------
                                  Maximum  Maximum                  Lateral       Total        Flow
                                  Lateral    Total  Time of Max      Inflow      Inflow     Balance
                                   Inflow   Inflow   Occurrence      Volume      Volume       Error
  Node                 Type           LPS      LPS  days hr:min    10^6 ltr    10^6 ltr     Percent
  -------------------------------------------------------------------------------------------------
  WS02001211           JUNCTION      7.35   292.84     0  03:50       0.207        5.97       0.543
  WS02001212           JUNCTION      0.00   293.08     0  03:50           0        5.94       0.295
  WS02001213           JUNCTION      0.00   293.31     0  03:50           0        5.92       0.336
  WS02003069           JUNCTION      0.32   921.93     0  03:12     0.00902        14.4       0.191
  WS02003072           JUNCTION      0.00   921.56     0  03:12           0        14.4       0.237
  WS02003073           JUNCTION      1.82   923.30     0  03:12      0.0514        14.4       0.265
  WS02003060           JUNCTION     16.53   922.38     0  03:11       0.466        14.4       0.182
  WS02003066           JUNCTION      0.00   659.33     0  03:06           0        8.09       0.056
  WS02003059           JUNCTION      0.00   293.73     0  03:50           0         5.9       0.638
  WS02003067           JUNCTION      0.00   659.28     0  03:06           0         8.1       0.117
  WS02004401           JUNCTION      0.00   660.49     0  03:03           0        8.33       0.262
  WS02004402           JUNCTION      0.00   660.04     0  03:03           0        8.31       0.247
  WS02004403           JUNCTION      0.00   659.89     0  03:04           0        8.29       0.224
  WS02004404           JUNCTION      0.16   660.00     0  03:04     0.00457        8.28       0.169
  WS02004406           JUNCTION      0.00   660.06     0  03:04           0        8.24       0.411
  WS02004409           JUNCTION      0.00   660.01     0  03:04           0         8.2       0.205
  WS02004410           JUNCTION      0.00   659.76     0  03:04           0        8.19       0.230
  WS02004411           JUNCTION      0.00   659.57     0  03:05           0        8.17       0.236
  WS02004412           JUNCTION      0.00   659.41     0  03:05           0        8.15       0.254
  WS02004413           JUNCTION      0.00   659.33     0  03:05           0        8.13       0.375
  WS02004405           JUNCTION      0.04   660.05     0  03:04     0.00107        8.26       0.252
  WS02006109           JUNCTION      1.23   652.68     0  03:02      0.0347         8.4       0.254
  WS02006110           JUNCTION      0.00   652.64     0  03:02           0        8.37       0.240
  WS02006111           JUNCTION      0.00   687.60     0  03:02           0        8.34       0.055
  WS02006112           JUNCTION     14.47   662.04     0  03:03      0.0629         8.4       0.354
  WS02006113           JUNCTION      0.00   654.93     0  03:02           0        8.35       0.119
  WS02006115           JUNCTION      0.00   662.59     0  03:03           0        8.37       0.246
  WS02006116           JUNCTION      0.00   660.62     0  03:03           0        8.35       0.233
  WS02006230           JUNCTION     10.28   355.45     0  03:21        0.29        6.51       0.202
  WS02006231           JUNCTION      0.00   343.18     0  03:22           0        6.24       0.194
  WS02006232           JUNCTION      0.00   343.11     0  03:22           0        6.25       0.264
  WS02006234           JUNCTION      0.00   342.07     0  03:23           0        6.26       0.133
  WS02006235           JUNCTION      0.00   341.53     0  03:21           0         6.3       0.174
  WS02006238           JUNCTION      0.00   244.67     0  03:21           0        3.97       0.201
  WS02006240           JUNCTION      0.00   241.89     0  03:18           0        3.96       0.306
  WS02006242           JUNCTION      0.00   241.55     0  03:17           0        3.97       0.368
  WS02006243           JUNCTION      0.00   238.97     0  03:17           0        3.96       0.042
  WS02006245           JUNCTION      0.00   238.92     0  02:15           0        3.97       0.234
  WS02006247           JUNCTION      0.00   240.97     0  02:15           0        3.97       0.168
  WS02006248           JUNCTION      0.00   242.93     0  02:15           0        3.98       0.075
  WS02006249           JUNCTION      0.00   280.88     0  03:01           0        4.11       0.293
  WS02006239           JUNCTION      0.00   243.29     0  03:19           0        3.97       0.299
  WS02006251           JUNCTION      0.08   281.04     0  03:01     0.00217        4.13       0.207
  WS02006252           JUNCTION      0.00   200.00     0  01:59           0        3.76       0.011
  WS02006253           JUNCTION      1.91    81.00     0  03:01     0.00814       0.372       1.030
  WS02006256           JUNCTION      0.00   600.00     0  03:10           0        7.44       0.041
  WS02004138           JUNCTION      0.00   285.00     0  03:40           0        5.79       0.055
  WS02004407           JUNCTION      0.00   660.08     0  03:04           0        8.21       0.092
  WS02006228           JUNCTION      0.00   651.50     0  03:02           0        8.38       0.184
  WS02006229           JUNCTION      0.00   650.51     0  03:02           0        8.39       0.144
  WS02006280           JUNCTION      0.00   375.54     0  03:02           0        1.89       0.004
  WS02006284           JUNCTION      0.10   375.54     0  03:02      0.0027        1.89       0.064
  WS02006287           JUNCTION      0.00   375.27     0  03:01           0        1.89       0.037
  WSF200               JUNCTION      0.00   659.33     0  03:06           0        8.08       0.056
  HS02004901           JUNCTION     17.47    17.47     0  03:01      0.0757      0.0759       2.380
  HS02004881           JUNCTION      7.55    79.19     0  03:01      0.0331       0.357       0.084
  HS02004876           JUNCTION     14.15    72.10     0  03:01      0.0636       0.324       0.171
  HS02004870           JUNCTION     14.17    58.27     0  03:01      0.0626       0.261       0.043
  HS02004862           JUNCTION     13.95    44.46     0  03:01      0.0685       0.198       0.089
  HS02004856           JUNCTION     10.64    30.79     0  03:01      0.0471       0.131       1.114
  HS02004852           JUNCTION      0.00    20.44     0  03:01           0       0.084       0.069
  HS02004848           JUNCTION     32.07    32.07     0  03:01       0.151       0.151       0.033
  HS02004842           JUNCTION      0.00    11.42     0  03:01           0      0.0801      19.389
  HS02004837           JUNCTION     30.75    41.91     0  03:01       0.288       0.355       0.230
  HS02004830           JUNCTION      0.15    41.84     0  03:01     0.00423       0.346       0.359
  HS02004824           JUNCTION     40.25    81.79     0  03:01       0.197       0.542       0.100
  HS02004817           JUNCTION      0.60    82.18     0  03:01      0.0169       0.558       3.079
  HS02004807           JUNCTION     26.15   107.24     0  03:01       0.115       0.657       0.656
  HS02004802           JUNCTION      0.00   106.49     0  03:01           0       0.653       0.618
  HS02004799           JUNCTION     21.02   227.51     0  03:01      0.0932        1.06       0.236
  HS02004792           JUNCTION     88.55   207.32     0  03:01       0.396       0.966       0.043
  HS02004788           JUNCTION     30.78   119.37     0  03:01       0.177       0.571       0.069
  HS02004785           JUNCTION      0.15    89.79     0  03:01     0.00423       0.396       0.125
  HS02004777           JUNCTION      0.03    90.24     0  03:01    0.000846       0.397       1.326
  HS02004770           JUNCTION     73.89    90.93     0  03:01       0.324       0.398       0.787
  HS02004480           JUNCTION      0.00   269.27     0  03:01           0        1.25       0.098
  HS02004479           JUNCTION      0.00    42.82     0  03:02           0       0.204       0.360
  HS02004478           JUNCTION      0.00   375.17     0  03:01           0        1.89       0.018
  YS02001745           JUNCTION    297.18   392.18     0  02:41        2.34        2.35       0.482
  YS02001748           JUNCTION      0.04   584.62     0  02:42     0.00127        2.34       0.989
  YS02001751           JUNCTION      0.01   315.66     0  02:38     0.00031         2.3       1.035
  YS02001754           JUNCTION      0.26   307.66     0  03:01     0.00733        2.29       1.095
  YS02001762           JUNCTION      0.00   336.20     0  02:55           0        1.73       1.228
  YS02001765           JUNCTION      0.00   336.34     0  02:55           0        1.73       1.413
  YS02001767           JUNCTION      0.54   336.39     0  02:55      0.0151        1.76       2.070
  YS02001770           JUNCTION    373.02   373.02     0  03:01        2.63        2.68       1.193
  YS02001774           JUNCTION      0.00   290.76     0  03:29           0       0.953       2.695
  YS02001779           JUNCTION      0.01   291.09     0  03:28    0.000141       0.923       1.683
  YS02001882           JUNCTION      0.00    30.23     0  02:39           0      0.0155      16.919
  YS02001884           JUNCTION      0.00    63.63     0  02:39           0       0.052      13.259
  YS02001759           JUNCTION    359.84   662.45     0  02:55        2.43        4.08       0.563
  YS02001887           JUNCTION    453.35   453.45     0  03:01         2.8        2.83       0.300
  YS02001890           JUNCTION      0.00   453.63     0  03:00           0        2.79       0.332
  YS02001898           JUNCTION      0.00   453.41     0  03:01           0        2.77       0.119
  YS02001901           JUNCTION      0.00   453.80     0  03:01           0        2.77       0.249
  YS02001904           JUNCTION      0.00   453.67     0  03:01           0        2.77       0.226
  YS02001907           JUNCTION      0.00   873.37     0  02:58           0        6.12       0.397
  YS02001910           JUNCTION      0.00   446.91     0  02:54           0        3.37       0.347
  YS02001915           JUNCTION    263.65   446.68     0  02:54        1.96        3.39       0.179
  YS02001918           JUNCTION      0.00   212.17     0  02:54           0        1.44       0.130
  YS02001619           JUNCTION    257.27   257.27     0  03:01        1.95        1.95       0.627
  YS02001629           JUNCTION      0.00   208.71     0  02:49           0        1.63       1.793
  YS02001641           JUNCTION      0.00   439.82     0  02:49           0        3.84       0.549
  YS02001644           JUNCTION    282.70  1001.31     0  03:24        2.25        8.47       0.308
  YS02001652           JUNCTION      0.00   365.93     0  03:00           0        2.04       1.153
  YS02001655           JUNCTION      0.15   366.85     0  03:00     0.00434        2.06       1.238
  YS02001920           JUNCTION      2.87   212.01     0  02:54      0.0809        1.43       0.205
  YS02001923           JUNCTION      0.04   237.47     0  02:54     0.00106        1.34       0.049
  YS02001926           JUNCTION      0.05   189.89     0  02:54     0.00147        1.34       0.247
  YS02001929           JUNCTION    129.40   129.40     0  03:01        1.34        1.34       0.040
  YS02001658           JUNCTION      0.00   613.20     0  02:39           0        2.09       1.129
  YS02001661           JUNCTION      0.00   691.94     0  02:54           0        2.81      -0.063
  YS02001664           JUNCTION    327.80   357.14     0  02:53        2.09        2.81       0.262
  YS02001622           JUNCTION      0.00   257.45     0  03:01           0        1.94       1.667
  YS02001633           JUNCTION    287.40   439.79     0  02:49        2.32         3.9       0.826
  YS02001649           JUNCTION      0.00   934.65     0  02:50           0         5.2       0.719
  YS02001757           JUNCTION      0.00  1775.68     0  02:51           0        9.05       1.031
  YS02001895           JUNCTION      0.00   453.48     0  03:01           0        2.78       0.176
  YS02001625           JUNCTION      0.00   257.37     0  03:01           0         1.9       2.047
  YS02163301           JUNCTION      0.00   208.94     0  02:49           0        1.61       1.499
  YS02163601           JUNCTION      0.11   439.93     0  02:49      0.0031        3.87       0.781
  YS02164001           JUNCTION      0.00   440.06     0  02:49           0        3.85       0.519
  YS02001647           JUNCTION      0.00   667.17     0  02:49           0        4.25       0.671
  YSB1154              JUNCTION     25.19    25.19     0  03:01       0.113       0.114       1.286
  YSB6556              JUNCTION      0.00    24.91     0  03:01           0       0.115       1.100
  YSB1174              JUNCTION     19.06    19.06     0  03:01      0.0821      0.0827       1.581
  YSB1171              JUNCTION      0.00    43.19     0  03:01           0       0.203       3.219
  YS02006553           JUNCTION      0.00   667.07     0  03:17           0         5.9       0.261
  YS02006561           JUNCTION      0.00   964.24     0  03:01           0        8.42       0.006
  YS02006556           JUNCTION      0.00   666.96     0  03:17           0         5.9       0.191
  YS02006558           JUNCTION    392.87   964.45     0  03:00        2.57        8.45       0.065
  YS02001783           JUNCTION      0.00   964.13     0  03:01           0        8.42       0.028
  YS02001784           JUNCTION      1.06   965.22     0  03:01      0.0299        8.44       0.043
  YS02001786           JUNCTION      0.06   965.35     0  03:00     0.00159        8.44       0.041
  YS02001788           JUNCTION      0.07   965.38     0  03:01       0.002        8.44       0.025
  YS02001790           JUNCTION      0.15   965.51     0  03:01     0.00437        8.44       0.032
  YS02001791           JUNCTION      0.00   965.51     0  03:00           0        8.44       0.006
  YS02001793           JUNCTION      0.00   965.56     0  03:01           0        8.44       0.004
  WS02004139           JUNCTION      0.32   285.32     0  03:43     0.00905        5.79       0.532
  WSC                  OUTFALL       0.00   923.36     0  03:13           0        14.3       0.000
  3                    OUTFALL       0.00   528.56     0  02:50           0        5.07       0.000
  4                    OUTFALL       0.00    63.42     0  03:03           0       0.126       0.000
  5                    OUTFALL       0.00     0.00     0  00:00           0           0       0.000 ltr
  JK-storage           STORAGE       0.00   965.64     0  03:01           0        8.59      -8.524
  CC-storage           STORAGE       0.00  1775.66     0  02:51           0        7.58       0.856
  XR-storage           STORAGE     690.11   690.11     0  03:01        9.61        10.2      -0.001
  
  
  **********************
  Node Surcharge Summary
  **********************
  
  Surcharging occurs when water rises above the top of the highest conduit.
  ---------------------------------------------------------------------
                                               Max. Height   Min. Depth
                                   Hours       Above Crown    Below Rim
  Node                 Type      Surcharged         Meters       Meters
  ---------------------------------------------------------------------
  WS02004404           JUNCTION        0.69          0.054        2.726
  WS02004406           JUNCTION        0.40          0.027        2.423
  WS02004405           JUNCTION        0.54          0.041        2.759
  WS02006109           JUNCTION        1.64          0.282        1.538
  WS02006110           JUNCTION        1.13          0.108        1.742
  WS02006112           JUNCTION        1.26          0.191        1.489
  WS02006230           JUNCTION        0.57          0.083        1.487
  WS02006231           JUNCTION        0.84          0.107        1.423
  WS02006232           JUNCTION        1.44          0.239        1.241
  WS02006234           JUNCTION        1.08          0.126        1.114
  WS02006235           JUNCTION        1.23          0.160        1.130
  WS02006238           JUNCTION        1.28          0.175        1.255
  WS02006240           JUNCTION        0.85          0.069        1.321
  WS02006242           JUNCTION        1.05          0.097        0.723
  WS02006239           JUNCTION        1.04          0.103        1.187
  WS02006228           JUNCTION        1.61          0.337        1.863
  YS02001748           JUNCTION        5.06          1.190        0.000
  YS02001751           JUNCTION        5.21          1.151        0.049
  YS02001754           JUNCTION        5.40          1.020        0.130
  YS02001762           JUNCTION        5.64          1.031        0.119
  YS02001765           JUNCTION        5.61          0.997        0.103
  YS02001767           JUNCTION        5.58          0.940        0.090
  YS02001770           JUNCTION        5.57          0.920        0.000
  YS02001774           JUNCTION        5.63          1.007        0.043
  YS02001779           JUNCTION        5.40          0.680        0.000
  YS02001882           JUNCTION        0.79          0.617        0.213
  YS02001884           JUNCTION        0.83          0.653        0.217
  YS02001759           JUNCTION        5.66          1.073        0.137
  YS02001887           JUNCTION        0.92          0.745        0.205
  YS02001890           JUNCTION        0.95          0.760        0.000
  YS02001898           JUNCTION        0.75          0.526        0.214
  YS02001901           JUNCTION        0.88          0.670        0.200
  YS02001904           JUNCTION        0.86          0.638        0.212
  YS02001907           JUNCTION        1.47          0.950        0.000
  YS02001910           JUNCTION        1.00          0.781        0.319
  YS02001915           JUNCTION        0.78          0.589        0.411
  YS02001918           JUNCTION        0.53          0.278        0.532
  YS02001619           JUNCTION        5.22          0.610        0.000
  YS02001629           JUNCTION        5.23          0.470        0.000
  YS02001641           JUNCTION        5.62          0.951        0.149
  YS02001644           JUNCTION        5.62          0.920        0.000
  YS02001652           JUNCTION        5.41          1.130        0.000
  YS02001655           JUNCTION        5.25          1.200        0.000
  YS02001920           JUNCTION        0.56          0.343        0.797
  YS02001658           JUNCTION        5.08          1.300        0.000
  YS02001661           JUNCTION        0.23          1.390        0.000
  YS02001622           JUNCTION        5.25          0.620        0.000
  YS02001633           JUNCTION        5.60          0.972        0.088
  YS02001649           JUNCTION        5.64          1.050        0.000
  YS02001757           JUNCTION        5.74          1.188        0.022
  YS02001895           JUNCTION        0.76          0.557        0.193
  YS02001625           JUNCTION        5.44          0.780        0.000
  YS02163301           JUNCTION        5.58          0.921        0.109
  YS02163601           JUNCTION        5.64          1.018        0.062
  YS02164001           JUNCTION        5.61          0.949        0.151
  YS02001647           JUNCTION        5.42          0.807        0.093
  YS02006553           JUNCTION        1.54          0.965        0.225
  YS02006561           JUNCTION        0.66          0.279        0.871
  YS02006556           JUNCTION        1.20          0.879        0.471
  YS02006558           JUNCTION        1.17          0.862        0.538
  YS02001783           JUNCTION        1.28          1.600        0.000
  YS02001784           JUNCTION        1.31          1.490        0.000
  YS02001786           JUNCTION        1.28          1.324        0.106
  YS02001788           JUNCTION        1.27          1.306        0.174
  YS02001790           JUNCTION        1.88          1.157        0.000
  YS02001791           JUNCTION        1.91          0.883        1.037
  YS02001793           JUNCTION        2.30          1.378        1.222
  
  
  *********************
  Node Flooding Summary
  *********************
  
  Flooding refers to all water that overflows a node, whether it ponds or not.
  --------------------------------------------------------------------------
                                                             Total   Maximum
                                 Maximum   Time of Max       Flood    Ponded
                        Hours       Rate    Occurrence      Volume     Depth
  Node                 Flooded       LPS   days hr:min    10^6 ltr    Meters
  --------------------------------------------------------------------------
  YS02001748              0.01    163.77      0  02:42       0.000     0.000
  YS02001770              0.01      3.46      0  02:42       0.000     0.000
  YS02001779              2.67    291.08      0  03:28       0.902     0.000
  YS02001890              0.01      0.11      0  02:52       0.000     0.000
  YS02001907              0.38    290.17      0  02:58       0.211     0.000
  YS02001619              0.01     34.38      0  02:40       0.000     0.000
  YS02001629              0.01     32.78      0  02:40       0.000     0.000
  YS02001644              4.76   1001.00      0  03:23       6.586     0.000
  YS02001652              0.01     13.81      0  03:11       0.000     0.000
  YS02001655              0.01     24.59      0  02:39       0.000     0.000
  YS02001658              0.01    331.94      0  02:39       0.000     0.000
  YS02001661              0.01    142.60      0  03:10       0.000     0.000
  YS02001622              0.01     54.57      0  02:40       0.000     0.000
  YS02001649              0.09     41.49      0  03:11       0.005     0.000
  YS02001625              0.85    168.47      0  03:01       0.236     0.000
  YS02001783              0.01     89.71      0  02:37       0.000     0.000
  YS02001784              0.01     90.01      0  02:37       0.000     0.000
  YS02001790              0.01    129.18      0  02:36       0.000     0.000
  JK-storage              1.56    665.02      0  03:00       1.953     0.000
  XR-storage              5.12    490.64      0  03:01       3.501     0.000
  
  
  **********************
  Storage Volume Summary
  **********************
  
  --------------------------------------------------------------------------------------------------
                         Average     Avg  Evap Exfil       Maximum     Max    Time of Max    Maximum
                          Volume    Pcnt  Pcnt  Pcnt        Volume    Pcnt     Occurrence    Outflow
  Storage Unit           1000 m3    Full  Loss  Loss       1000 m3    Full    days hr:min        LPS
  --------------------------------------------------------------------------------------------------
  JK-storage               0.130      45     0     0         0.291     100       0  02:37     600.00
  CC-storage               2.989      19     0     0         3.831      24       0  03:26     200.00
  XR-storage               0.913      98     0     0         0.926     100       0  01:51     285.00
  
  
  ***********************
  Outfall Loading Summary
  ***********************
  
  -----------------------------------------------------------
                         Flow       Avg       Max       Total
                         Freq      Flow      Flow      Volume
  Outfall Node           Pcnt       LPS       LPS    10^6 ltr
  -----------------------------------------------------------
  WSC                   99.99    593.76    923.36      14.339
  3                     96.09    241.65    528.56       5.071
  4                     18.87     31.94     63.42       0.126
  5                      0.00      0.00      0.00       0.000
  -----------------------------------------------------------
  System                53.74    867.35   1470.93      19.537
  
  
  ********************
  Link Flow Summary
  ********************
  
  -----------------------------------------------------------------------------
                                 Maximum  Time of Max   Maximum    Max/    Max/
                                  |Flow|   Occurrence   |Veloc|    Full    Full
  Link                 Type          LPS  days hr:min     m/sec    Flow   Depth
  -----------------------------------------------------------------------------
  WS02003066WSF200     CONDUIT    659.33     0  03:06      2.86    0.11    0.26
  WS02006287WS02006284 CONDUIT    375.44     0  03:02      1.98    0.17    0.29
  WS02006284WS02006280 CONDUIT    375.54     0  03:02      2.22    0.16    0.27
  WS02006280WS02006229 CONDUIT    375.58     0  03:02      3.58    0.08    0.19
  WS02006229WS02006228 CONDUIT    651.50     0  03:02      1.30    2.16    1.00
  WS02006256WS02006235 CONDUIT    166.25     0  00:01      2.58    1.76    1.00
  WS02006253WS02006251 CONDUIT     80.97     0  03:01      0.46    0.24    0.80
  WS02006252WS02006251 CONDUIT    200.61     0  01:59      1.97    0.74    0.76
  WS02006251WS02006249 CONDUIT    280.88     0  03:01      0.97    0.81    0.81
  WS02006249WS02006248 CONDUIT    242.93     0  02:15      1.05    1.33    0.81
  WS02006248WS02006247 CONDUIT    240.97     0  02:15      1.02    0.52    0.87
  WS02006247WS02006245 CONDUIT    238.92     0  02:15      0.98    1.89    0.93
  WS02006245WS02006243 CONDUIT    238.97     0  03:17      1.02    0.71    0.96
  WS02006243WS02006242 CONDUIT    241.55     0  03:17      0.83    0.52    1.00
  WS02006242WS02006240 CONDUIT    241.89     0  03:18      0.70    0.96    1.00
  WS02006240WS02006239 CONDUIT    243.29     0  03:19      0.69    0.77    1.00
  WS02006239WS02006238 CONDUIT    244.67     0  03:21      0.67    0.78    1.00
  WS02006238WS02006235 CONDUIT    244.70     0  03:21      1.25    0.55    1.00
  WS02006235WS02006234 CONDUIT    342.07     0  03:23      0.95    3.61    1.00
  WS02006234WS02006232 CONDUIT    343.11     0  03:22      1.13    0.69    1.00
  WS02006232WS02006231 CONDUIT    343.18     0  03:22      0.95    0.72    1.00
  WS02006231WS02006230 CONDUIT    345.17     0  03:21      1.30    5.24    1.00
  WS02006230WS02006229 CONDUIT    358.06     0  03:22      0.93    7.97    1.00
  WS02006228WS02006109 CONDUIT    651.45     0  03:02      1.30    2.85    1.00
  WS02006116WS02004401 CONDUIT    660.49     0  03:03      0.85    0.91    0.96
  WS02006115WS02006116 CONDUIT    660.62     0  03:03      0.90    0.85    0.89
  WS02006113WS02006111 CONDUIT    687.60     0  03:02      2.59    0.82    0.53
  WS02006112WS02006115 CONDUIT    662.59     0  03:03      0.87    0.39    0.94
  WS02006111WS02006112 CONDUIT    651.34     0  03:03      1.72    0.31    0.71
  WS02006110WS02006113 CONDUIT    654.93     0  03:02      1.49    0.60    0.82
  WS02006109WS02006110 CONDUIT    652.64     0  03:02      1.30    1.25    1.00
  WS02004411WS02004412 CONDUIT    659.41     0  03:05      1.03    0.94    0.76
  WS02004401WS02004402 CONDUIT    660.04     0  03:03      0.85    0.79    0.98
  WS02004413WS02003067 CONDUIT    659.28     0  03:06      1.25    0.28    0.64
  WS02004412WS02004413 CONDUIT    659.33     0  03:05      0.94    0.44    0.84
  WS02004410WS02004411 CONDUIT    659.57     0  03:05      1.03    0.90    0.76
  WS02004409WS02004410 CONDUIT    659.76     0  03:04      1.04    0.85    0.76
  WS02004407WS02004409 CONDUIT    660.01     0  03:04      1.53    0.23    0.54
  WS02004406WS02004407 CONDUIT    660.08     0  03:04      1.19    0.29    0.66
  WS02004405WS02004406 CONDUIT    660.06     0  03:04      0.84    1.30    1.00
  WS02004404WS02004405 CONDUIT    660.01     0  03:04      0.84    6.47    1.00
  WS02004403WS02004404 CONDUIT    659.84     0  03:04      0.84    0.48    1.00
  WS02004402WS02004403 CONDUIT    659.89     0  03:04      0.84    0.95    0.99
  WS02004139WS02001211 CONDUIT    285.50     0  03:50      0.53    0.36    0.54
  WS02004138WS02004139 CONDUIT    285.00     0  03:43      2.39    0.06    0.39
  WS02003067WS02003066 CONDUIT    659.33     0  03:06      1.35    0.21    0.45
  WS02001213WS02003059 CONDUIT    293.73     0  03:50      0.57    0.48    0.74
  WS02001212WS02001213 CONDUIT    293.31     0  03:50      1.17    0.45    0.43
  WS02001211WS02001212 CONDUIT    293.08     0  03:50      0.66    0.22    0.59
  WS02003072WS02003073 CONDUIT    921.48     0  03:12      1.71    1.99    0.48
  WS02003069WS02003072 CONDUIT    921.56     0  03:12      1.61    0.44    0.50
  WS02003060WS02003069 CONDUIT    921.61     0  03:12      1.86    0.36    0.45
  WS02003059WS02003060 CONDUIT    294.28     0  03:51      0.78    0.19    0.65
  HS02004901HS02004770 CONDUIT     17.71     0  03:01      0.07    0.07    0.39
  HS02004876HS02004881 CONDUIT     71.90     0  03:01      0.92    0.76    0.11
  HS02004870HS02004876 CONDUIT     58.03     0  03:01      0.63    0.04    0.13
  HS02004842HS02004848 CONDUIT     11.42     0  03:01      0.05    0.01    0.30
  HS02004837HS02004842 CONDUIT     11.94     0  03:02      0.41    0.01    0.32
  HS02004830HS02004837 CONDUIT     41.69     0  03:01      0.56    0.04    0.11
  HS02004824HS02004830 CONDUIT     41.67     0  03:01      0.58    0.05    0.10
  HS02004817HS02004824 CONDUIT     81.58     0  03:01      0.25    0.04    0.47
  HS02004770HS02004777 CONDUIT     90.21     0  03:01      0.32    0.16    0.41
  HS02004799HS02004480 CONDUIT    226.97     0  03:01      0.78    0.29    0.42
  HS02004792HS02004799 CONDUIT    206.60     0  03:01      0.88    0.13    0.33
  HS02004788HS02004792 CONDUIT    118.94     0  03:01      1.01    0.08    0.17
  HS02004785HS02004788 CONDUIT     89.52     0  03:02      0.66    0.67    0.19
  HS02004777HS02004785 CONDUIT     89.64     0  03:01      0.38    0.11    0.33
  HS02004480HS02004478 CONDUIT    269.12     0  03:01      1.20    1.13    0.32
  HS02004479HS02004480 CONDUIT     44.17     0  03:02      0.23    0.04    0.40
  HS02004862HS02004870 CONDUIT     44.23     0  03:01      0.64    0.05    0.10
  HS02004848HS02004852 CONDUIT     20.44     0  03:01      0.44    0.02    0.07
  HS02004856HS02004862 CONDUIT     30.57     0  03:01      0.47    0.03    0.09
  HS02004852HS02004856 CONDUIT     20.26     0  03:01      0.24    0.02    0.12
  HS02004802HS02004478 CONDUIT    106.59     0  03:02      0.45    0.09    0.35
  HS02004478WS02006287 CONDUIT    375.27     0  03:01      1.68    0.11    0.25
  HS02004817HS02004807 CONDUIT     82.18     0  03:01      0.19    0.05    0.62
  HS02004807HS02004802 CONDUIT    106.49     0  03:01      0.38    0.20    0.40
  YS02001759YS02001757 CONDUIT    662.29     0  02:55      0.84    0.47    1.00
  YS02001762YS02001759 CONDUIT    336.33     0  02:55      0.43    0.39    1.00
  YS02001765YS02001762 CONDUIT    336.20     0  02:55      0.43    0.32    1.00
  YS02001770YS02001767 CONDUIT    335.86     0  02:55      0.43    1.33    1.00
  YS02001774YS02001770 CONDUIT    290.76     0  03:29      0.37    0.19    1.00
  YS02001779YS02001774 CONDUIT    291.09     0  03:28      0.37    0.15    1.00
  YS02001649YS02001757 CONDUIT    934.88     0  02:50      1.19    0.57    1.00
  YS02001767YS02001765 CONDUIT    336.34     0  02:55      0.43    0.42    1.00
  YS02006561YS02001783 CONDUIT    964.13     0  03:01      2.11    0.50    1.00
  YS02001783YS02001784 CONDUIT    964.16     0  03:01      1.92    1.33    1.00
  YS02001784YS02001785 CONDUIT    965.30     0  03:00      1.92    2.25    1.00
  YS02001788YS02001790 CONDUIT    965.35     0  03:01      2.29    0.71    1.00
  YS02001790YS02001791 CONDUIT    965.51     0  03:00      2.79    1.05    1.00
  YS02001791YS02001793 CONDUIT    965.56     0  03:01      5.54    0.41    1.00
  YS02001910YS02001907 CONDUIT    446.91     0  02:54      0.57    0.25    1.00
  YS02001786YS02001788 CONDUIT    965.31     0  03:01      2.20    1.86    1.00
  YS02001915YS02001910 CONDUIT    446.91     0  02:54      0.57    0.22    1.00
  YS02001918YS02001915 CONDUIT    212.60     0  02:54      0.44    0.12    1.00
  YS02001923YS02001920 CONDUIT    209.14     0  02:54      0.68    0.09    1.00
  YS02001926YS02001923 CONDUIT    237.43     0  02:54      0.79    0.34    0.89
  YS02001929YS02001926 CONDUIT    189.84     0  02:54      0.84    0.09    0.80
  YS02001920YS02001918 CONDUIT    212.17     0  02:54      0.67    0.21    1.00
  YS02001629YS02163301 CONDUIT    208.94     0  02:49      0.27    0.26    1.00
  YS02001619YS02001622 CONDUIT    257.45     0  03:01      0.61    0.38    1.00
  YS02001622YS02001625 CONDUIT    257.37     0  03:01      0.33    0.14    1.00
  YS02001625YS02001629 CONDUIT    208.71     0  02:49      0.27    0.10    1.00
  YS02163301YS02001633 CONDUIT    208.89     0  02:49      0.27    0.20    1.00
  YS02163601YS02164001 CONDUIT    440.06     0  02:49      0.56    0.39    1.00
  YS02164001YS02001641 CONDUIT    439.82     0  02:49      0.56    0.60    1.00
  YS02001641YS02001644 CONDUIT    439.81     0  02:49      0.56    1.42    1.00
  YS02001647YS02001649 CONDUIT    666.87     0  02:49      0.85    0.35    1.00
  YS02006553YS02006556 CONDUIT    666.96     0  03:17      0.85    0.57    1.00
  YS02006556YS02006558 CONDUIT    667.32     0  03:17      0.85    0.53    1.00
  YSB6556YSB1171       CONDUIT     24.81     0  03:03      0.09    0.03    0.67
  YS02001907YS02006553 CONDUIT    667.07     0  03:17      0.74    0.78    1.00
  YS02006558YS02006561 CONDUIT    964.24     0  03:01      3.41    2.13    1.00
  YS02001633YS02163601 CONDUIT    439.82     0  02:49      0.56    0.46    1.00
  YS02001644YS02001647 CONDUIT    667.17     0  02:49      0.85    0.39    1.00
  YS02001745YS02001748 CONDUIT    584.57     0  02:42      1.48    0.23    0.94
  YS02001748YS02001751 CONDUIT    315.65     0  02:38      1.05    0.16    1.00
  YS02001751YS02001754 CONDUIT    307.40     0  03:01      0.88    0.15    1.00
  YS02001754YS02001757 CONDUIT    307.83     0  03:01      0.39    0.12    1.00
  YS02001882YS02001884 CONDUIT     30.23     0  02:39      0.09    0.03    1.00
  YS02001884YS02001887 CONDUIT     63.63     0  02:39      0.09    0.08    1.00
  YS02001890YS02001895 CONDUIT    453.48     0  03:01      0.58    0.21    1.00
  YS02001895YS02001898 CONDUIT    453.41     0  03:01      0.58    0.79    1.00
  YS02001898YS02001901 CONDUIT    453.80     0  03:01      0.58    0.29    1.00
  YS02001901YS02001904 CONDUIT    453.67     0  03:01      0.58    0.70    1.00
  YS02001904YS02001907 CONDUIT    453.68     0  03:01      0.58    0.16    1.00
  YS02001887YS02001890 CONDUIT    453.63     0  03:00      0.58    0.78    1.00
  YS02001652YS02001649 CONDUIT    365.98     0  03:00      0.50    0.18    1.00
  YS02001655YS02001652 CONDUIT    365.93     0  03:00      0.93    0.18    1.00
  YS02001658YS02001655 CONDUIT    366.70     0  03:00      1.21    0.16    1.00
  YS02001661YS02001658 CONDUIT    613.20     0  02:39      1.56    0.24    1.00
  YS02001664YS02001661 CONDUIT    691.94     0  02:54      1.59    0.22    0.71
  YSB1154YSB6556       CONDUIT     24.91     0  03:01      0.18    0.04    0.56
  YSB1174YSB1171       CONDUIT     18.78     0  03:01      0.07    0.03    0.68
  YSB1171HS02004479    CONDUIT     42.82     0  03:02      0.54    0.03    0.53
  HS02004881HS02006253 CONDUIT     79.15     0  03:01      1.62    0.02    0.20
  YS02001793JiankangQianchi CONDUIT    965.64     0  03:01     13.29    0.08    1.00
  YS02001757CaochengTiaoxuchi CONDUIT   1775.66     0  02:51      2.38    0.78    1.00
  WSF200WS02003060     CONDUIT    658.95     0  03:06      1.87    0.15    0.36
  1                    CONDUIT    923.36     0  03:13      3.26    0.32    0.39
  2                    CONDUIT     63.42     0  03:03      4.26    0.15    0.26
  3                    CONDUIT    528.56     0  02:50      9.88    0.84    0.71
  4                    CONDUIT      0.00     0  00:00      0.00    0.00    0.00
  CC-Pump-1            PUMP         0.00     0  00:00              0.00
  CC-Pump-2            PUMP       200.00     0  01:59              1.00
  JK-Pump-1            PUMP       300.00     0  03:10              1.00
  JK-Pump-2            PUMP       300.00     0  00:00              1.00
  XR-Pump-1            PUMP        95.00     0  00:50              1.00
  XR-Pump-2            PUMP         0.00     0  00:00              0.00
  XR-Pump-3            PUMP        95.00     0  00:40              1.00
  XR-Pump-4            PUMP        95.00     0  00:00              1.00
  
  
  ***************************
  Flow Classification Summary
  ***************************
  
  -------------------------------------------------------------------------------------
                      Adjusted    ---------- Fraction of Time in Flow Class ---------- 
                       /Actual         Up    Down  Sub   Sup   Up    Down  Norm  Inlet 
  Conduit               Length    Dry  Dry   Dry   Crit  Crit  Crit  Crit  Ltd   Ctrl  
  -------------------------------------------------------------------------------------
  WS02003066WSF200        1.00   0.06  0.00  0.00  0.00  0.94  0.00  0.00  0.60  0.00
  WS02006287WS02006284    1.00   0.04  0.01  0.00  0.57  0.38  0.00  0.00  0.65  0.00
  WS02006284WS02006280    1.00   0.04  0.00  0.00  0.00  0.00  0.00  0.96  0.00  0.00
  WS02006280WS02006229    1.00   0.04  0.00  0.00  0.00  0.00  0.00  0.96  0.00  0.00
  WS02006229WS02006228    1.00   0.00  0.00  0.00  0.99  0.00  0.00  0.01  0.00  0.00
  WS02006256WS02006235    1.00   0.00  0.00  0.00  1.00  0.00  0.00  0.00  0.00  0.00
  WS02006253WS02006251    1.00   0.03  0.01  0.00  0.96  0.00  0.00  0.00  0.00  0.00
  WS02006252WS02006251    1.00   0.07  0.00  0.00  0.00  0.00  0.93  0.00  0.00  0.00
  WS02006251WS02006249    1.00   0.00  0.00  0.00  1.00  0.00  0.00  0.00  0.25  0.00
  WS02006249WS02006248    1.00   0.00  0.02  0.00  0.89  0.00  0.09  0.00  0.00  0.00
  WS02006248WS02006247    1.00   0.02  0.00  0.00  0.98  0.00  0.00  0.00  0.13  0.00
  WS02006247WS02006245    1.00   0.02  0.00  0.00  0.98  0.00  0.00  0.00  0.00  0.00
  WS02006245WS02006243    1.00   0.01  0.00  0.00  0.95  0.00  0.00  0.03  0.01  0.00
  WS02006243WS02006242    1.00   0.01  0.00  0.00  0.99  0.00  0.00  0.00  0.20  0.00
  WS02006242WS02006240    1.00   0.00  0.00  0.00  1.00  0.00  0.00  0.00  0.00  0.00
  WS02006240WS02006239    1.00   0.00  0.00  0.00  0.97  0.00  0.00  0.03  0.01  0.00
  WS02006239WS02006238    1.00   0.00  0.00  0.00  1.00  0.00  0.00  0.00  0.00  0.00
  WS02006238WS02006235    1.00   0.00  0.00  0.00  1.00  0.00  0.00  0.00  0.00  0.00
  WS02006235WS02006234    1.00   0.00  0.00  0.00  0.97  0.00  0.03  0.00  0.00  0.00
  WS02006234WS02006232    1.00   0.00  0.00  0.00  1.00  0.00  0.00  0.00  0.03  0.00
  WS02006232WS02006231    1.00   0.00  0.00  0.00  0.99  0.00  0.00  0.00  0.00  0.00
  WS02006231WS02006230    1.00   0.00  0.00  0.00  0.48  0.00  0.51  0.00  0.00  0.00
  WS02006230WS02006229    1.00   0.00  0.00  0.00  0.99  0.00  0.00  0.01  0.01  0.00
  WS02006228WS02006109    1.00   0.00  0.00  0.00  1.00  0.00  0.00  0.00  0.00  0.00
  WS02006116WS02004401    1.00   0.02  0.00  0.00  0.98  0.00  0.00  0.00  0.00  0.00
  WS02006115WS02006116    1.00   0.02  0.00  0.00  0.97  0.00  0.00  0.01  0.00  0.00
  WS02006113WS02006111    1.00   0.02  0.00  0.00  0.00  0.98  0.00  0.00  0.10  0.00
  WS02006112WS02006115    1.00   0.02  0.00  0.00  0.98  0.00  0.00  0.00  0.00  0.00
  WS02006111WS02006112    1.00   0.02  0.00  0.00  0.98  0.00  0.00  0.00  0.91  0.00
  WS02006110WS02006113    1.00   0.01  0.01  0.00  0.98  0.00  0.00  0.00  0.00  0.00
  WS02006109WS02006110    1.00   0.00  0.01  0.00  0.98  0.00  0.01  0.00  0.00  0.00
  WS02004411WS02004412    1.00   0.04  0.00  0.00  0.96  0.00  0.00  0.00  0.00  0.00
  WS02004401WS02004402    1.00   0.02  0.00  0.00  0.98  0.00  0.00  0.00  0.00  0.00
  WS02004413WS02003067    1.00   0.04  0.01  0.00  0.00  0.00  0.95  0.00  0.00  0.00
  WS02004412WS02004413    1.00   0.04  0.00  0.00  0.96  0.00  0.00  0.00  0.03  0.00
  WS02004410WS02004411    1.00   0.04  0.00  0.00  0.96  0.00  0.00  0.00  0.03  0.00
  WS02004409WS02004410    1.00   0.04  0.00  0.00  0.96  0.00  0.00  0.00  0.03  0.00
  WS02004407WS02004409    1.00   0.04  0.00  0.00  0.96  0.00  0.00  0.00  0.89  0.00
  WS02004406WS02004407    1.00   0.00  0.03  0.00  0.96  0.00  0.00  0.00  0.00  0.00
  WS02004405WS02004406    1.00   0.00  0.00  0.00  1.00  0.00  0.00  0.00  0.01  0.00
  WS02004404WS02004405    1.00   0.00  0.00  0.00  1.00  0.00  0.00  0.00  0.00  0.00
  WS02004403WS02004404    1.00   0.00  0.02  0.00  0.98  0.00  0.00  0.00  0.01  0.00
  WS02004402WS02004403    1.00   0.02  0.00  0.00  0.98  0.00  0.00  0.00  0.00  0.00
  WS02004139WS02001211    1.00   0.00  0.00  0.00  0.99  0.00  0.01  0.00  0.00  0.00
  WS02004138WS02004139    1.00   0.00  0.00  0.00  0.99  0.01  0.00  0.00  1.00  0.00
  WS02003067WS02003066    1.00   0.05  0.01  0.00  0.94  0.00  0.00  0.00  0.00  0.00
  WS02001213WS02003059    1.00   0.00  0.01  0.00  0.99  0.00  0.00  0.00  0.00  0.00
  WS02001212WS02001213    1.00   0.01  0.00  0.00  0.86  0.00  0.13  0.00  0.00  0.00
  WS02001211WS02001212    1.00   0.00  0.01  0.00  0.99  0.00  0.00  0.00  0.00  0.00
  WS02003072WS02003073    1.00   0.00  0.00  0.00  0.00  0.00  0.00  1.00  0.00  0.00
  WS02003069WS02003072    1.00   0.00  0.00  0.00  0.99  0.01  0.00  0.00  0.25  0.00
  WS02003060WS02003069    1.00   0.00  0.00  0.00  0.99  0.01  0.00  0.00  0.15  0.00
  WS02003059WS02003060    1.00   0.00  0.00  0.00  1.00  0.00  0.00  0.00  0.02  0.00
  HS02004901HS02004770    1.00   0.04  0.00  0.00  0.96  0.00  0.00  0.00  0.00  0.00
  HS02004876HS02004881    1.00   0.02  0.00  0.00  0.89  0.09  0.00  0.00  0.00  0.00
  HS02004870HS02004876    1.00   0.01  0.00  0.00  0.99  0.00  0.00  0.00  0.95  0.00
  HS02004842HS02004848    1.00   0.00  0.04  0.00  0.96  0.00  0.00  0.00  0.58  0.00
  HS02004837HS02004842    1.00   0.00  0.00  0.00  0.99  0.01  0.00  0.00  0.11  0.00
  HS02004830HS02004837    1.00   0.00  0.00  0.00  1.00  0.00  0.00  0.00  0.99  0.00
  HS02004824HS02004830    1.00   0.00  0.00  0.00  1.00  0.00  0.00  0.00  0.00  0.00
  HS02004817HS02004824    1.00   0.00  0.00  0.00  1.00  0.00  0.00  0.00  1.00  0.00
  HS02004770HS02004777    1.00   0.00  0.04  0.00  0.96  0.00  0.00  0.00  0.03  0.00
  HS02004799HS02004480    1.00   0.00  0.02  0.00  0.95  0.00  0.02  0.00  0.00  0.00
  HS02004792HS02004799    1.00   0.00  0.00  0.00  0.99  0.01  0.00  0.00  0.98  0.00
  HS02004788HS02004792    1.00   0.00  0.00  0.00  0.99  0.01  0.00  0.00  0.98  0.00
  HS02004785HS02004788    1.00   0.00  0.00  0.00  1.00  0.00  0.00  0.00  0.00  0.00
  HS02004777HS02004785    1.00   0.00  0.00  0.00  1.00  0.00  0.00  0.00  0.14  0.00
  HS02004480HS02004478    1.00   0.04  0.00  0.00  0.64  0.00  0.00  0.31  0.00  0.00
  HS02004479HS02004480    1.00   0.03  0.00  0.00  0.97  0.00  0.00  0.00  0.12  0.00
  HS02004862HS02004870    1.00   0.00  0.00  0.00  1.00  0.00  0.00  0.00  0.05  0.00
  HS02004848HS02004852    1.00   0.04  0.00  0.00  0.96  0.00  0.00  0.00  0.61  0.00
  HS02004856HS02004862    1.00   0.00  0.05  0.00  0.95  0.00  0.00  0.00  0.80  0.00
  HS02004852HS02004856    1.00   0.04  0.00  0.00  0.96  0.00  0.00  0.00  0.85  0.00
  HS02004802HS02004478    1.00   0.04  0.00  0.00  0.96  0.00  0.00  0.00  0.03  0.00
  HS02004478WS02006287    1.00   0.05  0.00  0.00  0.71  0.24  0.00  0.00  0.66  0.00
  HS02004817HS02004807    1.00   0.00  0.04  0.00  0.96  0.00  0.00  0.00  0.01  0.00
  HS02004807HS02004802    1.00   0.04  0.00  0.00  0.96  0.00  0.00  0.00  0.00  0.00
  YS02001759YS02001757    1.00   0.00  0.00  0.00  1.00  0.00  0.00  0.00  0.16  0.00
  YS02001762YS02001759    1.00   0.00  0.00  0.00  1.00  0.00  0.00  0.00  0.04  0.00
  YS02001765YS02001762    1.00   0.00  0.00  0.00  1.00  0.00  0.00  0.00  0.16  0.00
  YS02001770YS02001767    1.00   0.00  0.00  0.00  1.00  0.00  0.00  0.00  0.00  0.00
  YS02001774YS02001770    1.00   0.00  0.04  0.00  0.96  0.00  0.00  0.00  0.04  0.00
  YS02001779YS02001774    1.00   0.00  0.00  0.00  1.00  0.00  0.00  0.00  0.21  0.00
  YS02001649YS02001757    1.00   0.00  0.00  0.00  1.00  0.00  0.00  0.00  0.17  0.00
  YS02001767YS02001765    1.00   0.00  0.00  0.00  1.00  0.00  0.00  0.00  0.00  0.00
  YS02006561YS02001783    1.00   0.05  0.00  0.00  0.33  0.62  0.00  0.00  0.54  0.00
  YS02001783YS02001784    1.00   0.00  0.05  0.00  0.95  0.00  0.00  0.00  0.01  0.00
  YS02001784YS02001785    1.00   0.00  0.00  0.00  1.00  0.00  0.00  0.00  0.20  0.00
  YS02001788YS02001790    1.00   0.00  0.00  0.00  0.41  0.59  0.00  0.00  0.49  0.00
  YS02001790YS02001791    1.00   0.00  0.00  0.00  0.39  0.61  0.00  0.00  0.47  0.00
  YS02001791YS02001793    1.00   0.00  0.00  0.00  0.41  0.59  0.00  0.00  0.01  0.00
  YS02001910YS02001907    1.00   0.00  0.00  0.00  0.98  0.00  0.00  0.02  0.13  0.00
  YS02001786YS02001788    1.00   0.00  0.00  0.00  0.38  0.62  0.00  0.00  0.00  0.00
  YS02001915YS02001910    1.00   0.00  0.00  0.00  0.99  0.01  0.00  0.00  0.18  0.00
  YS02001918YS02001915    1.00   0.00  0.01  0.00  0.98  0.01  0.00  0.00  0.58  0.00
  YS02001923YS02001920    1.00   0.00  0.00  0.00  1.00  0.00  0.00  0.00  0.85  0.00
  YS02001926YS02001923    1.00   0.00  0.03  0.00  0.15  0.00  0.82  0.00  0.00  0.00
  YS02001929YS02001926    1.00   0.00  0.04  0.00  0.96  0.00  0.00  0.00  0.78  0.00
  YS02001920YS02001918    1.00   0.00  0.01  0.00  0.99  0.00  0.00  0.00  0.00  0.00
  YS02001629YS02163301    1.00   0.05  0.00  0.00  0.95  0.00  0.00  0.00  0.00  0.00
  YS02001619YS02001622    1.00   0.04  0.00  0.00  0.96  0.00  0.00  0.00  0.00  0.00
  YS02001622YS02001625    1.00   0.04  0.00  0.00  0.96  0.00  0.00  0.00  0.07  0.00
  YS02001625YS02001629    1.00   0.04  0.01  0.00  0.93  0.00  0.02  0.00  0.00  0.00
  YS02163301YS02001633    1.00   0.00  0.05  0.00  0.95  0.00  0.00  0.00  0.00  0.00
  YS02163601YS02164001    1.00   0.00  0.03  0.00  0.97  0.00  0.00  0.00  0.00  0.00
  YS02164001YS02001641    1.00   0.01  0.02  0.00  0.97  0.00  0.00  0.00  0.06  0.00
  YS02001641YS02001644    1.00   0.00  0.01  0.00  0.99  0.00  0.00  0.00  0.00  0.00
  YS02001647YS02001649    1.00   0.00  0.05  0.00  0.95  0.00  0.00  0.00  0.01  0.00
  YS02006553YS02006556    1.00   0.01  0.00  0.00  0.99  0.00  0.00  0.00  0.03  0.00
  YS02006556YS02006558    1.00   0.00  0.00  0.00  1.00  0.00  0.00  0.00  0.00  0.00
  YSB6556YSB1171          1.00   0.03  0.01  0.00  0.96  0.00  0.00  0.00  0.00  0.00
  YS02001907YS02006553    1.00   0.00  0.02  0.00  0.98  0.00  0.00  0.00  0.00  0.00
  YS02006558YS02006561    1.00   0.05  0.00  0.00  0.19  0.76  0.00  0.00  0.48  0.00
  YS02001633YS02163601    1.00   0.00  0.01  0.00  0.99  0.00  0.00  0.00  0.16  0.00
  YS02001644YS02001647    1.00   0.00  0.05  0.00  0.95  0.00  0.00  0.00  0.00  0.00
  YS02001745YS02001748    1.00   0.00  0.00  0.00  0.88  0.01  0.00  0.11  0.05  0.00
  YS02001748YS02001751    1.00   0.00  0.00  0.00  0.97  0.03  0.00  0.00  0.15  0.00
  YS02001751YS02001754    1.00   0.00  0.00  0.00  0.94  0.00  0.00  0.06  0.02  0.00
  YS02001754YS02001757    1.00   0.00  0.00  0.00  0.99  0.01  0.00  0.00  0.20  0.00
  YS02001882YS02001884    1.00   0.05  0.00  0.00  0.95  0.00  0.00  0.00  0.00  0.00
  YS02001884YS02001887    1.00   0.03  0.01  0.00  0.96  0.00  0.00  0.00  0.00  0.00
  YS02001890YS02001895    1.00   0.00  0.05  0.00  0.95  0.00  0.00  0.00  0.00  0.00
  YS02001895YS02001898    1.00   0.05  0.00  0.00  0.94  0.00  0.01  0.00  0.00  0.00
  YS02001898YS02001901    1.00   0.05  0.00  0.00  0.95  0.00  0.00  0.00  0.02  0.00
  YS02001901YS02001904    1.00   0.05  0.00  0.00  0.95  0.00  0.00  0.00  0.00  0.00
  YS02001904YS02001907    1.00   0.00  0.05  0.00  0.95  0.00  0.00  0.00  0.00  0.00
  YS02001887YS02001890    1.00   0.00  0.00  0.00  0.98  0.00  0.02  0.00  0.00  0.00
  YS02001652YS02001649    1.00   0.00  0.00  0.00  1.00  0.00  0.00  0.00  0.18  0.00
  YS02001655YS02001652    1.00   0.00  0.00  0.00  0.94  0.00  0.00  0.06  0.02  0.00
  YS02001658YS02001655    1.00   0.00  0.04  0.00  0.93  0.03  0.00  0.00  0.11  0.00
  YS02001661YS02001658    1.00   0.04  0.00  0.00  0.88  0.07  0.00  0.00  0.06  0.00
  YS02001664YS02001661    1.00   0.04  0.00  0.00  0.86  0.10  0.00  0.00  0.22  0.00
  YSB1154YSB6556          1.00   0.04  0.00  0.00  0.96  0.00  0.00  0.00  0.02  0.00
  YSB1174YSB1171          1.00   0.03  0.01  0.00  0.97  0.00  0.00  0.00  0.00  0.00
  YSB1171HS02004479       1.00   0.03  0.00  0.00  0.97  0.00  0.00  0.00  0.11  0.00
  HS02004881HS02006253    1.00   0.03  0.00  0.00  0.79  0.01  0.00  0.17  0.64  0.00
  YS02001793JiankangQianchi    1.00   0.00  0.00  0.00  0.53  0.47  0.00  0.00  0.11  0.00
  YS02001757CaochengTiaoxuchi    1.00   0.00  0.07  0.00  0.92  0.01  0.00  0.00  0.00  0.00
  WSF200WS02003060        1.00   0.00  0.06  0.00  0.68  0.26  0.00  0.00  0.13  0.00
  1                       1.00   0.00  0.00  0.00  0.00  1.00  0.00  0.00  0.32  0.00
  2                       1.00   0.81  0.00  0.00  0.00  0.19  0.00  0.00  0.01  0.00
  3                       1.00   0.04  0.00  0.00  0.00  0.96  0.00  0.00  0.21  0.00
  4                       1.00   1.00  0.00  0.00  0.00  0.00  0.00  0.00  0.00  0.00
  
  
  *************************
  Conduit Surcharge Summary
  *************************
  
  ----------------------------------------------------------------------------
                                                           Hours        Hours 
                         --------- Hours Full --------   Above Full   Capacity
  Conduit                Both Ends  Upstream  Dnstream   Normal Flow   Limited
  ----------------------------------------------------------------------------
  WS02006229WS02006228        1.61      1.66      1.61      4.94         1.61
  WS02006256WS02006235        6.14      6.14      7.70      4.71         0.01
  WS02006249WS02006248        0.01      0.01      0.01      4.77         0.01
  WS02006247WS02006245        0.01      0.01      0.01      5.08         0.01
  WS02006243WS02006242        0.02      0.02      1.05      0.01         0.01
  WS02006242WS02006240        0.85      0.85      1.17      0.01         0.01
  WS02006240WS02006239        0.93      0.93      1.04      0.01         0.01
  WS02006239WS02006238        1.21      1.21      1.28      0.01         0.01
  WS02006238WS02006235        1.26      1.26      1.35      0.01         0.01
  WS02006235WS02006234        1.07      1.07      1.23      6.17         0.01
  WS02006234WS02006232        1.17      1.17      1.44      0.01         0.01
  WS02006232WS02006231        0.84      0.84      1.44      0.01         0.01
  WS02006231WS02006230        0.57      0.57      0.91      6.16         0.01
  WS02006230WS02006229        2.20      4.36      2.20      6.25         2.20
  WS02006228WS02006109        1.63      1.93      1.63      5.53         1.63
  WS02006112WS02006115        0.01      0.01      1.26      0.01         0.01
  WS02006111WS02006112        0.01      0.01      4.94      0.01         0.01
  WS02006110WS02006113        0.01      0.01      1.73      0.01         0.01
  WS02006109WS02006110        1.13      1.13      1.93      1.13         0.01
  WS02004406WS02004407        0.01      0.01      0.40      0.01         0.01
  WS02004405WS02004406        0.40      0.54      0.40      1.20         0.40
  WS02004404WS02004405        0.54      0.69      0.54      6.00         0.54
  WS02004403WS02004404        0.01      0.01      0.69      0.01         0.01
  WS02003072WS02003073        0.01      0.01      0.01      5.31         0.01
  HS02004480HS02004478        0.01      0.01      0.01      0.25         0.01
  YS02001759YS02001757        5.66      5.66      5.74      0.01         0.01
  YS02001762YS02001759        5.64      5.64      5.66      0.01         0.01
  YS02001765YS02001762        5.61      5.61      5.64      0.01         0.01
  YS02001770YS02001767        5.58      5.58      5.58      0.32         0.72
  YS02001774YS02001770        5.57      5.57      5.63      0.01         0.01
  YS02001779YS02001774        5.40      5.40      5.63      0.01         0.01
  YS02001649YS02001757        5.64      5.64      5.74      0.01         0.01
  YS02001767YS02001765        5.58      5.58      5.61      0.01         0.01
  YS02006561YS02001783        0.66      0.66      1.28      0.01         0.01
  YS02001783YS02001784        1.28      1.28      1.31      1.08         1.01
  YS02001784YS02001785        1.28      1.31      1.28      2.08         1.28
  YS02001788YS02001790        1.27      1.27      1.88      0.01         0.01
  YS02001790YS02001791        1.88      1.88      1.91      0.49         0.49
  YS02001791YS02001793        1.91      1.91      2.38      0.01         0.01
  YS02001910YS02001907        1.00      1.00      1.47      0.01         0.01
  YS02001786YS02001788        1.27      1.28      1.27      1.67         1.27
  YS02001915YS02001910        0.78      0.78      1.00      0.01         0.01
  YS02001918YS02001915        0.53      0.53      0.78      0.01         0.01
  YS02001923YS02001920        0.28      0.28      0.56      0.01         0.01
  YS02001920YS02001918        0.53      0.53      0.56      0.01         0.01
  YS02001629YS02163301        5.57      5.57      5.58      0.01         0.01
  YS02001619YS02001622        5.22      5.22      5.25      0.01         0.01
  YS02001622YS02001625        5.25      5.25      5.44      0.01         0.01
  YS02001625YS02001629        5.23      5.23      5.44      0.01         0.01
  YS02163301YS02001633        5.58      5.58      5.61      0.01         0.01
  YS02163601YS02164001        5.61      5.61      5.64      0.01         0.01
  YS02164001YS02001641        5.61      5.61      5.62      0.01         0.03
  YS02001641YS02001644        5.62      5.62      5.62      1.20         1.28
  YS02001647YS02001649        5.42      5.42      5.64      0.01         0.01
  YS02006553YS02006556        1.20      1.20      1.54      0.01         0.01
  YS02006556YS02006558        1.36      1.36      1.61      0.01         0.01
  YS02001907YS02006553        2.09      2.09      2.30      0.01         0.01
  YS02006558YS02006561        0.89      1.17      0.89      1.94         0.89
  YS02001633YS02163601        5.60      5.60      5.64      0.01         0.01
  YS02001644YS02001647        5.42      5.42      5.62      0.01         0.01
  YS02001745YS02001748        0.01      0.01      5.05      0.01         0.01
  YS02001748YS02001751        5.10      5.10      5.21      0.01         0.01
  YS02001751YS02001754        5.21      5.21      5.40      0.01         0.01
  YS02001754YS02001757        5.42      5.42      5.74      0.01         0.01
  YS02001882YS02001884        0.79      0.79      0.83      0.01         0.01
  YS02001884YS02001887        0.89      0.89      0.92      0.01         0.01
  YS02001890YS02001895        0.76      0.76      1.02      0.01         0.01
  YS02001895YS02001898        0.75      0.75      0.76      0.01         0.01
  YS02001898YS02001901        0.77      0.77      0.88      0.01         0.01
  YS02001901YS02001904        0.86      0.86      0.88      0.01         0.01
  YS02001904YS02001907        0.86      0.86      1.56      0.01         0.01
  YS02001887YS02001890        0.95      0.95      0.99      0.01         0.01
  YS02001652YS02001649        5.43      5.43      5.64      0.01         0.01
  YS02001655YS02001652        5.25      5.25      5.41      0.01         0.01
  YS02001658YS02001655        5.08      5.08      5.25      0.01         0.01
  YS02001661YS02001658        0.22      0.22      5.08      0.01         0.01
  YS02001664YS02001661        0.01      0.01      1.21      0.01         0.01
  YS02001793JiankangQianchi        2.30      2.30      3.08      0.01         0.01
  YS02001757CaochengTiaoxuchi        4.90      4.90      5.74      0.01         0.01
  
  
  ***************
  Pumping Summary
  ***************
  
  ---------------------------------------------------------------------------------------------------------
                                                  Min       Avg       Max     Total     Power    % Time Off
                        Percent   Number of      Flow      Flow      Flow    Volume     Usage    Pump Curve
  Pump                 Utilized   Start-Ups       LPS       LPS       LPS  10^6 ltr     Kw-hr    Low   High
  ---------------------------------------------------------------------------------------------------------
  CC-Pump-1                0.00           0      0.00      0.00      0.00     0.000      0.00    0.0    0.0
  CC-Pump-2               73.69           2      0.00    181.33    200.00     3.761      4.51    0.0   10.6
  JK-Pump-1               63.81           8      0.00    153.89    300.00     2.159     23.54    0.0    0.0
  JK-Pump-2              100.00           1      0.00    231.60    300.00     5.278     58.77    0.0    0.0
  XR-Pump-1               85.09          10      0.00     74.37     95.00     1.710      8.66    0.0    0.0
  XR-Pump-2                0.00           0      0.00      0.00      0.00     0.000      0.00    0.0    0.0
  XR-Pump-3               95.73           6      0.00     76.47     95.00     2.080     10.82    0.0    0.0
  XR-Pump-4               91.49           6      0.00     81.08     95.00     1.995     10.35    0.0    0.0
  

  Analysis begun on:  Thu Jan  6 15:05:08 2022
  Analysis ended on:  Thu Jan  6 15:05:11 2022
  Total elapsed time: 00:00:03